ZINC00007489
  -OEChem-08230709403D

 29 31  0     0  0  0  0  0  0999 V2000
    5.9692    3.4062   -0.0362 C   0  0  0  0  0  0  0  0  0  0  0  0
    5.4230    2.0857   -0.0380 O   0  0  0  0  0  0  0  0  0  0  0  0
    4.0676    1.9783   -0.0261 C   0  0  0  0  0  0  0  0  0  0  0  0
    3.2826    3.1280   -0.0125 C   0  0  0  0  0  0  0  0  0  0  0  0
    1.9079    3.0336    0.0001 C   0  0  0  0  0  0  0  0  0  0  0  0
    1.3000    1.7860   -0.0008 C   0  0  0  0  0  0  0  0  0  0  0  0
    2.0852    0.6211   -0.0145 C   0  0  0  0  0  0  0  0  0  0  0  0
    3.4784    0.7299   -0.0272 C   0  0  0  0  0  0  0  0  0  0  0  0
    1.2301   -0.4340   -0.0120 N   0  0  0  0  0  0  0  0  0  0  0  0
    0.0021   -0.0041    0.0020 C   0  0  0  0  0  0  0  0  0  0  0  0
   -0.0164    1.3581    0.0095 N   0  0  0  0  0  0  0  0  0  0  0  0
   -1.1555    2.1739    0.0196 C   0  0  0  0  0  0  0  0  0  0  0  0
   -1.2691    3.1986    0.9496 C   0  0  0  0  0  0  0  0  0  0  0  0
   -2.3904    4.0050    0.9530 C   0  0  0  0  0  0  0  0  0  0  0  0
   -3.4047    3.7851    0.0392 C   0  0  0  0  0  0  0  0  0  0  0  0
   -3.2972    2.7615   -0.8843 C   0  0  0  0  0  0  0  0  0  0  0  0
   -2.1756    1.9556   -0.8967 C   0  0  0  0  0  0  0  0  0  0  0  0
    5.6251    3.9430   -0.9203 H   0  0  0  0  0  0  0  0  0  0  0  0
    5.6414    3.9337    0.8596 H   0  0  0  0  0  0  0  0  0  0  0  0
    7.0576    3.3493   -0.0465 H   0  0  0  0  0  0  0  0  0  0  0  0
    3.7539    4.0997   -0.0114 H   0  0  0  0  0  0  0  0  0  0  0  0
    1.3044    3.9292    0.0111 H   0  0  0  0  0  0  0  0  0  0  0  0
    4.0916   -0.1591   -0.0382 H   0  0  0  0  0  0  0  0  0  0  0  0
   -0.8745   -0.6349    0.0064 H   0  0  0  0  0  0  0  0  0  0  0  0
   -0.4794    3.3677    1.6667 H   0  0  0  0  0  0  0  0  0  0  0  0
   -2.4772    4.8053    1.6731 H   0  0  0  0  0  0  0  0  0  0  0  0
   -4.2824    4.4144    0.0465 H   0  0  0  0  0  0  0  0  0  0  0  0
   -4.0910    2.5922   -1.5968 H   0  0  0  0  0  0  0  0  0  0  0  0
   -2.0920    1.1567   -1.6187 H   0  0  0  0  0  0  0  0  0  0  0  0
  1  2  1  0  0  0  0
  1 18  1  0  0  0  0
  1 19  1  0  0  0  0
  1 20  1  0  0  0  0
  2  3  1  0  0  0  0
  3  8  2  0  0  0  0
  3  4  1  0  0  0  0
  4  5  2  0  0  0  0
  4 21  1  0  0  0  0
  5  6  1  0  0  0  0
  5 22  1  0  0  0  0
  6 11  1  0  0  0  0
  6  7  2  0  0  0  0
  7  8  1  0  0  0  0
  7  9  1  0  0  0  0
  8 23  1  0  0  0  0
  9 10  2  0  0  0  0
 10 11  1  0  0  0  0
 10 24  1  0  0  0  0
 11 12  1  0  0  0  0
 12 17  2  0  0  0  0
 12 13  1  0  0  0  0
 13 14  2  0  0  0  0
 13 25  1  0  0  0  0
 14 15  1  0  0  0  0
 14 26  1  0  0  0  0
 15 16  2  0  0  0  0
 15 27  1  0  0  0  0
 16 17  1  0  0  0  0
 16 28  1  0  0  0  0
 17 29  1  0  0  0  0
M  END
$$$$
ZINC00008074
  -OEChem-08230709403D

 39 41  0     0  0  0  0  0  0999 V2000
   -7.2569   -0.4226    0.0355 C   0  0  0  0  0  0  0  0  0  0  0  0
   -6.0409   -1.1731    0.0256 O   0  0  0  0  0  0  0  0  0  0  0  0
   -4.8801   -0.4668    0.0234 C   0  0  0  0  0  0  0  0  0  0  0  0
   -3.6629   -1.1346    0.0139 C   0  0  0  0  0  0  0  0  0  0  0  0
   -2.4831   -0.4205    0.0116 C   0  0  0  0  0  0  0  0  0  0  0  0
   -2.5135    0.9731    0.0194 C   0  0  0  0  0  0  0  0  0  0  0  0
   -3.7371    1.6406    0.0347 C   0  0  0  0  0  0  0  0  0  0  0  0
   -4.9136    0.9211    0.0311 C   0  0  0  0  0  0  0  0  0  0  0  0
   -1.2463    1.7441    0.0175 C   0  0  0  0  0  0  0  0  0  0  0  0
   -1.2723    3.1317    0.0315 C   0  0  0  0  0  0  0  0  0  0  0  0
   -0.0448    3.8147    0.0231 C   0  0  0  0  0  0  0  0  0  0  0  0
    0.0053    5.2196    0.0298 C   0  0  0  0  0  0  0  0  0  0  0  0
    1.2138    5.8519    0.0211 C   0  0  0  0  0  0  0  0  0  0  0  0
    2.4078    5.1143    0.0056 C   0  0  0  0  0  0  0  0  0  0  0  0
    2.3891    3.7500   -0.0012 C   0  0  0  0  0  0  0  0  0  0  0  0
    1.1607    3.0674    0.0074 C   0  0  0  0  0  0  0  0  0  0  0  0
    1.1213    1.7305    0.0006 N   0  0  0  0  0  0  0  0  0  0  0  0
   -0.0126    1.0758    0.0080 C   0  0  0  0  0  0  0  0  0  0  0  0
    3.5990    5.7680   -0.0032 O   0  0  0  0  0  0  0  0  0  0  0  0
    4.7802    4.9639   -0.0194 C   0  0  0  0  0  0  0  0  0  0  0  0
    1.2623    7.2104    0.0281 O   0  0  0  0  0  0  0  0  0  0  0  0
    0.0131    7.9041    0.0439 C   0  0  0  0  0  0  0  0  0  0  0  0
   -7.2917    0.2009    0.9289 H   0  0  0  0  0  0  0  0  0  0  0  0
   -7.3006    0.2101   -0.8511 H   0  0  0  0  0  0  0  0  0  0  0  0
   -8.1058   -1.1063    0.0362 H   0  0  0  0  0  0  0  0  0  0  0  0
   -3.6400   -2.2143    0.0078 H   0  0  0  0  0  0  0  0  0  0  0  0
   -1.5366   -0.9405    0.0042 H   0  0  0  0  0  0  0  0  0  0  0  0
   -3.7638    2.7203    0.0449 H   0  0  0  0  0  0  0  0  0  0  0  0
   -5.8620    1.4377    0.0382 H   0  0  0  0  0  0  0  0  0  0  0  0
   -2.2084    3.6703    0.0434 H   0  0  0  0  0  0  0  0  0  0  0  0
   -0.9084    5.7952    0.0413 H   0  0  0  0  0  0  0  0  0  0  0  0
    3.3161    3.1960   -0.0135 H   0  0  0  0  0  0  0  0  0  0  0  0
    0.0021   -0.0041    0.0020 H   0  0  0  0  0  0  0  0  0  0  0  0
    5.6588    5.6089   -0.0251 H   0  0  0  0  0  0  0  0  0  0  0  0
    4.8005    4.3301    0.8672 H   0  0  0  0  0  0  0  0  0  0  0  0
    4.7823    4.3392   -0.9127 H   0  0  0  0  0  0  0  0  0  0  0  0
   -0.5625    7.6362   -0.8420 H   0  0  0  0  0  0  0  0  0  0  0  0
   -0.5454    7.6264    0.9378 H   0  0  0  0  0  0  0  0  0  0  0  0
    0.1944    8.9789    0.0480 H   0  0  0  0  0  0  0  0  0  0  0  0
  1  2  1  0  0  0  0
  1 23  1  0  0  0  0
  1 24  1  0  0  0  0
  1 25  1  0  0  0  0
  2  3  1  0  0  0  0
  3  8  2  0  0  0  0
  3  4  1  0  0  0  0
  4  5  2  0  0  0  0
  4 26  1  0  0  0  0
  5  6  1  0  0  0  0
  5 27  1  0  0  0  0
  6  7  2  0  0  0  0
  6  9  1  0  0  0  0
  7  8  1  0  0  0  0
  7 28  1  0  0  0  0
  8 29  1  0  0  0  0
  9 18  2  0  0  0  0
  9 10  1  0  0  0  0
 10 11  2  0  0  0  0
 10 30  1  0  0  0  0
 11 16  1  0  0  0  0
 11 12  1  0  0  0  0
 12 13  2  0  0  0  0
 12 31  1  0  0  0  0
 13 14  1  0  0  0  0
 13 21  1  0  0  0  0
 14 15  2  0  0  0  0
 14 19  1  0  0  0  0
 15 16  1  0  0  0  0
 15 32  1  0  0  0  0
 16 17  2  0  0  0  0
 17 18  1  0  0  0  0
 18 33  1  0  0  0  0
 19 20  1  0  0  0  0
 20 34  1  0  0  0  0
 20 35  1  0  0  0  0
 20 36  1  0  0  0  0
 21 22  1  0  0  0  0
 22 37  1  0  0  0  0
 22 38  1  0  0  0  0
 22 39  1  0  0  0  0
M  END
$$$$
ZINC00008075
  -OEChem-08230709403D

 32 34  0     0  0  0  0  0  0999 V2000
    5.9309   -2.0502   -0.0664 C   0  0  0  0  0  0  0  0  0  0  0  0
    4.7157   -2.8020   -0.0590 O   0  0  0  0  0  0  0  0  0  0  0  0
    3.5536   -2.0966   -0.0438 C   0  0  0  0  0  0  0  0  0  0  0  0
    3.5917   -0.7328   -0.0359 C   0  0  0  0  0  0  0  0  0  0  0  0
    2.3904   -0.0037   -0.0207 C   0  0  0  0  0  0  0  0  0  0  0  0
    2.3935    1.4016   -0.0127 C   0  0  0  0  0  0  0  0  0  0  0  0
    1.1701    2.0558    0.0019 C   0  0  0  0  0  0  0  0  0  0  0  0
   -0.0157    1.3049    0.0092 C   0  0  0  0  0  0  0  0  0  0  0  0
    0.0021   -0.0041    0.0020 N   0  0  0  0  0  0  0  0  0  0  0  0
    1.1498   -0.6911   -0.0126 C   0  0  0  0  0  0  0  0  0  0  0  0
    1.1459   -2.0962   -0.0207 C   0  0  0  0  0  0  0  0  0  0  0  0
    2.3275   -2.7785   -0.0360 C   0  0  0  0  0  0  0  0  0  0  0  0
    2.3165   -4.1374   -0.0441 O   0  0  0  0  0  0  0  0  0  0  0  0
    1.0381   -4.7759   -0.0360 C   0  0  0  0  0  0  0  0  0  0  0  0
    1.1158    3.5384    0.0103 C   0  0  0  0  0  0  0  0  0  0  0  0
   -0.1054    4.2056    0.0255 C   0  0  0  0  0  0  0  0  0  0  0  0
   -0.1142    5.5577    0.0328 C   0  0  0  0  0  0  0  0  0  0  0  0
    1.6273    5.9475    0.0182 S   0  0  0  0  0  0  0  0  0  0  0  0
    2.2640    4.2800    0.0090 C   0  0  0  0  0  0  0  0  0  0  0  0
    6.7805   -2.7329   -0.0784 H   0  0  0  0  0  0  0  0  0  0  0  0
    5.9610   -1.4170   -0.9531 H   0  0  0  0  0  0  0  0  0  0  0  0
    5.9781   -1.4271    0.8268 H   0  0  0  0  0  0  0  0  0  0  0  0
    4.5401   -0.2162   -0.0414 H   0  0  0  0  0  0  0  0  0  0  0  0
    3.3205    1.9558   -0.0182 H   0  0  0  0  0  0  0  0  0  0  0  0
   -0.9653    1.8193    0.0165 H   0  0  0  0  0  0  0  0  0  0  0  0
    0.2098   -2.6349   -0.0151 H   0  0  0  0  0  0  0  0  0  0  0  0
    0.4919   -4.4840    0.8610 H   0  0  0  0  0  0  0  0  0  0  0  0
    0.4752   -4.4731   -0.9189 H   0  0  0  0  0  0  0  0  0  0  0  0
    1.1722   -5.8576   -0.0438 H   0  0  0  0  0  0  0  0  0  0  0  0
   -1.0324    3.6516    0.0318 H   0  0  0  0  0  0  0  0  0  0  0  0
   -0.9593    6.2300    0.0444 H   0  0  0  0  0  0  0  0  0  0  0  0
    3.2904    3.9441    0.0024 H   0  0  0  0  0  0  0  0  0  0  0  0
  1  2  1  0  0  0  0
  1 20  1  0  0  0  0
  1 21  1  0  0  0  0
  1 22  1  0  0  0  0
  2  3  1  0  0  0  0
  3 12  2  0  0  0  0
  3  4  1  0  0  0  0
  4  5  2  0  0  0  0
  4 23  1  0  0  0  0
  5 10  1  0  0  0  0
  5  6  1  0  0  0  0
  6  7  2  0  0  0  0
  6 24  1  0  0  0  0
  7  8  1  0  0  0  0
  7 15  1  0  0  0  0
  8  9  2  0  0  0  0
  8 25  1  0  0  0  0
  9 10  1  0  0  0  0
 10 11  2  0  0  0  0
 11 12  1  0  0  0  0
 11 26  1  0  0  0  0
 12 13  1  0  0  0  0
 13 14  1  0  0  0  0
 14 27  1  0  0  0  0
 14 28  1  0  0  0  0
 14 29  1  0  0  0  0
 15 19  2  0  0  0  0
 15 16  1  0  0  0  0
 16 17  2  0  0  0  0
 16 30  1  0  0  0  0
 17 18  1  0  0  0  0
 17 31  1  0  0  0  0
 18 19  1  0  0  0  0
 19 32  1  0  0  0  0
M  END
$$$$
ZINC00008076
  -OEChem-08230709403D

 28 30  0     0  0  0  0  0  0999 V2000
   -3.5876    1.8078    0.0284 C   0  0  0  0  0  0  0  0  0  0  0  0
   -2.3755    1.0509    0.0185 O   0  0  0  0  0  0  0  0  0  0  0  0
   -1.2113    1.7510    0.0173 C   0  0  0  0  0  0  0  0  0  0  0  0
   -1.2460    3.1493    0.0309 C   0  0  0  0  0  0  0  0  0  0  0  0
   -0.0956    3.8741    0.0239 C   0  0  0  0  0  0  0  0  0  0  0  0
    1.1461    3.2153    0.0085 C   0  0  0  0  0  0  0  0  0  0  0  0
    2.3514    3.9381   -0.0000 C   0  0  0  0  0  0  0  0  0  0  0  0
    3.5400    3.2232   -0.0157 C   0  0  0  0  0  0  0  0  0  0  0  0
    3.5033    1.8200   -0.0225 C   0  0  0  0  0  0  0  0  0  0  0  0
    2.3703    1.1644   -0.0148 N   0  0  0  0  0  0  0  0  0  0  0  0
    1.1920    1.7981    0.0003 C   0  0  0  0  0  0  0  0  0  0  0  0
   -0.0126    1.0758    0.0080 C   0  0  0  0  0  0  0  0  0  0  0  0
    4.8408    3.9366   -0.0248 C   0  0  0  0  0  0  0  0  0  0  0  0
    6.0397    3.2302   -0.0400 C   0  0  0  0  0  0  0  0  0  0  0  0
    7.2051    3.9158   -0.0478 C   0  0  0  0  0  0  0  0  0  0  0  0
    6.6470    5.6109   -0.0337 S   0  0  0  0  0  0  0  0  0  0  0  0
    4.8889    5.3027   -0.0239 C   0  0  0  0  0  0  0  0  0  0  0  0
   -3.6276    2.4412   -0.8578 H   0  0  0  0  0  0  0  0  0  0  0  0
   -4.4401    1.1286    0.0283 H   0  0  0  0  0  0  0  0  0  0  0  0
   -3.6196    2.4309    0.9221 H   0  0  0  0  0  0  0  0  0  0  0  0
   -2.1979    3.6594    0.0424 H   0  0  0  0  0  0  0  0  0  0  0  0
   -0.1357    4.9533    0.0297 H   0  0  0  0  0  0  0  0  0  0  0  0
    2.3521    5.0181    0.0051 H   0  0  0  0  0  0  0  0  0  0  0  0
    4.4317    1.2683   -0.0348 H   0  0  0  0  0  0  0  0  0  0  0  0
    0.0021   -0.0041    0.0020 H   0  0  0  0  0  0  0  0  0  0  0  0
    6.0393    2.1503   -0.0459 H   0  0  0  0  0  0  0  0  0  0  0  0
    8.2157    3.5349   -0.0596 H   0  0  0  0  0  0  0  0  0  0  0  0
    4.0743    6.0117   -0.0173 H   0  0  0  0  0  0  0  0  0  0  0  0
  1  2  1  0  0  0  0
  1 18  1  0  0  0  0
  1 19  1  0  0  0  0
  1 20  1  0  0  0  0
  2  3  1  0  0  0  0
  3 12  2  0  0  0  0
  3  4  1  0  0  0  0
  4  5  2  0  0  0  0
  4 21  1  0  0  0  0
  5  6  1  0  0  0  0
  5 22  1  0  0  0  0
  6 11  2  0  0  0  0
  6  7  1  0  0  0  0
  7  8  2  0  0  0  0
  7 23  1  0  0  0  0
  8  9  1  0  0  0  0
  8 13  1  0  0  0  0
  9 10  2  0  0  0  0
  9 24  1  0  0  0  0
 10 11  1  0  0  0  0
 11 12  1  0  0  0  0
 12 25  1  0  0  0  0
 13 17  2  0  0  0  0
 13 14  1  0  0  0  0
 14 15  2  0  0  0  0
 14 26  1  0  0  0  0
 15 16  1  0  0  0  0
 15 27  1  0  0  0  0
 16 17  1  0  0  0  0
 17 28  1  0  0  0  0
M  END
$$$$
ZINC00008077
  -OEChem-08230709403D

 39 41  0     0  0  0  0  0  0999 V2000
    3.5524    2.1858   -0.0197 C   0  0  0  0  0  0  0  0  0  0  0  0
    2.3636    1.3928   -0.0126 O   0  0  0  0  0  0  0  0  0  0  0  0
    1.1782    2.0579    0.0019 C   0  0  0  0  0  0  0  0  0  0  0  0
    1.1626    3.4454    0.0085 C   0  0  0  0  0  0  0  0  0  0  0  0
   -0.0385    4.1235    0.0232 C   0  0  0  0  0  0  0  0  0  0  0  0
   -1.2385    3.4144    0.0313 C   0  0  0  0  0  0  0  0  0  0  0  0
   -1.2216    2.0206    0.0188 C   0  0  0  0  0  0  0  0  0  0  0  0
   -0.0162    1.3468    0.0094 C   0  0  0  0  0  0  0  0  0  0  0  0
    0.0021   -0.0041    0.0020 F   0  0  0  0  0  0  0  0  0  0  0  0
   -2.5312    4.1416    0.0470 C   0  0  0  0  0  0  0  0  0  0  0  0
   -3.7284    3.4393    0.0493 C   0  0  0  0  0  0  0  0  0  0  0  0
   -4.9248    4.1751    0.0690 C   0  0  0  0  0  0  0  0  0  0  0  0
   -6.1742    3.5308    0.0769 C   0  0  0  0  0  0  0  0  0  0  0  0
   -7.3173    4.2748    0.0894 C   0  0  0  0  0  0  0  0  0  0  0  0
   -7.2589    5.6771    0.0953 C   0  0  0  0  0  0  0  0  0  0  0  0
   -6.0602    6.3289    0.0879 C   0  0  0  0  0  0  0  0  0  0  0  0
   -4.8636    5.5922    0.0746 C   0  0  0  0  0  0  0  0  0  0  0  0
   -3.6787    6.2126    0.0667 N   0  0  0  0  0  0  0  0  0  0  0  0
   -2.5527    5.5446    0.0538 C   0  0  0  0  0  0  0  0  0  0  0  0
   -8.4121    6.3956    0.1082 O   0  0  0  0  0  0  0  0  0  0  0  0
   -8.2894    7.8194    0.1132 C   0  0  0  0  0  0  0  0  0  0  0  0
   -8.5255    3.6518    0.0966 O   0  0  0  0  0  0  0  0  0  0  0  0
   -8.5186    2.2228    0.0901 C   0  0  0  0  0  0  0  0  0  0  0  0
    3.5612    2.8193   -0.9066 H   0  0  0  0  0  0  0  0  0  0  0  0
    3.5778    2.8103    0.8732 H   0  0  0  0  0  0  0  0  0  0  0  0
    4.4248    1.5325   -0.0312 H   0  0  0  0  0  0  0  0  0  0  0  0
    2.0922    3.9951    0.0019 H   0  0  0  0  0  0  0  0  0  0  0  0
   -0.0491    5.2035    0.0280 H   0  0  0  0  0  0  0  0  0  0  0  0
   -2.1498    1.4685    0.0206 H   0  0  0  0  0  0  0  0  0  0  0  0
   -3.7396    2.3594    0.0402 H   0  0  0  0  0  0  0  0  0  0  0  0
   -6.2287    2.4522    0.0736 H   0  0  0  0  0  0  0  0  0  0  0  0
   -6.0312    7.4085    0.0918 H   0  0  0  0  0  0  0  0  0  0  0  0
   -1.6184    6.0862    0.0478 H   0  0  0  0  0  0  0  0  0  0  0  0
   -9.2821    8.2695    0.1235 H   0  0  0  0  0  0  0  0  0  0  0  0
   -7.7387    8.1335    0.9998 H   0  0  0  0  0  0  0  0  0  0  0  0
   -7.7539    8.1410   -0.7800 H   0  0  0  0  0  0  0  0  0  0  0  0
   -9.5445    1.8545    0.0969 H   0  0  0  0  0  0  0  0  0  0  0  0
   -8.0105    1.8661   -0.8058 H   0  0  0  0  0  0  0  0  0  0  0  0
   -7.9956    1.8579    0.9740 H   0  0  0  0  0  0  0  0  0  0  0  0
  1  2  1  0  0  0  0
  1 24  1  0  0  0  0
  1 25  1  0  0  0  0
  1 26  1  0  0  0  0
  2  3  1  0  0  0  0
  3  8  2  0  0  0  0
  3  4  1  0  0  0  0
  4  5  2  0  0  0  0
  4 27  1  0  0  0  0
  5  6  1  0  0  0  0
  5 28  1  0  0  0  0
  6  7  2  0  0  0  0
  6 10  1  0  0  0  0
  7  8  1  0  0  0  0
  7 29  1  0  0  0  0
  8  9  1  0  0  0  0
 10 19  2  0  0  0  0
 10 11  1  0  0  0  0
 11 12  2  0  0  0  0
 11 30  1  0  0  0  0
 12 17  1  0  0  0  0
 12 13  1  0  0  0  0
 13 14  2  0  0  0  0
 13 31  1  0  0  0  0
 14 15  1  0  0  0  0
 14 22  1  0  0  0  0
 15 16  2  0  0  0  0
 15 20  1  0  0  0  0
 16 17  1  0  0  0  0
 16 32  1  0  0  0  0
 17 18  2  0  0  0  0
 18 19  1  0  0  0  0
 19 33  1  0  0  0  0
 20 21  1  0  0  0  0
 21 34  1  0  0  0  0
 21 35  1  0  0  0  0
 21 36  1  0  0  0  0
 22 23  1  0  0  0  0
 23 37  1  0  0  0  0
 23 38  1  0  0  0  0
 23 39  1  0  0  0  0
M  END
$$$$
ZINC00008079
  -OEChem-08230709403D

 36 38  0     0  0  0  0  0  0999 V2000
   -0.4563   -6.5113   -4.2384 C   0  0  0  0  0  0  0  0  0  0  0  0
    0.5305   -7.0644   -3.3652 O   0  0  0  0  0  0  0  0  0  0  0  0
    1.0970   -6.2216   -2.4615 C   0  0  0  0  0  0  0  0  0  0  0  0
    0.7113   -4.9135   -2.4241 C   0  0  0  0  0  0  0  0  0  0  0  0
    1.2971   -4.0421   -1.4897 C   0  0  0  0  0  0  0  0  0  0  0  0
    0.9233   -2.6895   -1.4246 C   0  0  0  0  0  0  0  0  0  0  0  0
    1.5445   -1.8860   -0.4762 C   0  0  0  0  0  0  0  0  0  0  0  0
    2.5173   -2.4425    0.3717 C   0  0  0  0  0  0  0  0  0  0  0  0
    2.8469   -3.7068    0.2978 N   0  0  0  0  0  0  0  0  0  0  0  0
    2.2835   -4.5298   -0.5943 C   0  0  0  0  0  0  0  0  0  0  0  0
    2.6574   -5.8822   -0.6590 C   0  0  0  0  0  0  0  0  0  0  0  0
    2.0720   -6.7059   -1.5764 C   0  0  0  0  0  0  0  0  0  0  0  0
    2.4382   -8.0131   -1.6332 O   0  0  0  0  0  0  0  0  0  0  0  0
    3.4356   -8.4482   -0.7069 C   0  0  0  0  0  0  0  0  0  0  0  0
    1.1894   -0.4560   -0.3641 C   0  0  0  0  0  0  0  0  0  0  0  0
    0.0021   -0.0041    0.0020 C   0  0  0  0  0  0  0  0  0  0  0  0
   -0.0184    1.5069    0.0103 C   0  0  0  0  0  0  0  0  0  0  0  0
    1.4705    1.9225   -0.0017 C   0  0  0  0  0  0  0  0  0  0  0  0
    2.1337    0.6876   -0.6534 C   0  0  0  0  0  0  0  0  0  0  0  0
   -0.0122   -5.7076   -4.8258 H   0  0  0  0  0  0  0  0  0  0  0  0
   -0.8262   -7.2885   -4.9072 H   0  0  0  0  0  0  0  0  0  0  0  0
   -1.2831   -6.1160   -3.6483 H   0  0  0  0  0  0  0  0  0  0  0  0
   -0.0400   -4.5493   -3.1091 H   0  0  0  0  0  0  0  0  0  0  0  0
    0.1754   -2.2864   -2.0913 H   0  0  0  0  0  0  0  0  0  0  0  0
    3.0008   -1.8133    1.1043 H   0  0  0  0  0  0  0  0  0  0  0  0
    3.4068   -6.2693    0.0155 H   0  0  0  0  0  0  0  0  0  0  0  0
    4.3521   -7.8802   -0.8664 H   0  0  0  0  0  0  0  0  0  0  0  0
    3.0810   -8.2873    0.3111 H   0  0  0  0  0  0  0  0  0  0  0  0
    3.6346   -9.5091   -0.8590 H   0  0  0  0  0  0  0  0  0  0  0  0
   -0.8394   -0.6300    0.2597 H   0  0  0  0  0  0  0  0  0  0  0  0
   -0.5249    1.8843   -0.8780 H   0  0  0  0  0  0  0  0  0  0  0  0
   -0.5078    1.8747    0.9122 H   0  0  0  0  0  0  0  0  0  0  0  0
    1.6222    2.8140   -0.6102 H   0  0  0  0  0  0  0  0  0  0  0  0
    1.8413    2.0757    1.0118 H   0  0  0  0  0  0  0  0  0  0  0  0
    3.1081    0.4982   -0.2029 H   0  0  0  0  0  0  0  0  0  0  0  0
    2.2340    0.8341   -1.7288 H   0  0  0  0  0  0  0  0  0  0  0  0
  1  2  1  0  0  0  0
  1 20  1  0  0  0  0
  1 21  1  0  0  0  0
  1 22  1  0  0  0  0
  2  3  1  0  0  0  0
  3 12  2  0  0  0  0
  3  4  1  0  0  0  0
  4  5  2  0  0  0  0
  4 23  1  0  0  0  0
  5 10  1  0  0  0  0
  5  6  1  0  0  0  0
  6  7  2  0  0  0  0
  6 24  1  0  0  0  0
  7  8  1  0  0  0  0
  7 15  1  0  0  0  0
  8  9  2  0  0  0  0
  8 25  1  0  0  0  0
  9 10  1  0  0  0  0
 10 11  2  0  0  0  0
 11 12  1  0  0  0  0
 11 26  1  0  0  0  0
 12 13  1  0  0  0  0
 13 14  1  0  0  0  0
 14 27  1  0  0  0  0
 14 28  1  0  0  0  0
 14 29  1  0  0  0  0
 15 19  1  0  0  0  0
 15 16  2  0  0  0  0
 16 17  1  0  0  0  0
 16 30  1  0  0  0  0
 17 18  1  0  0  0  0
 17 31  1  0  0  0  0
 17 32  1  0  0  0  0
 18 19  1  0  0  0  0
 18 33  1  0  0  0  0
 18 34  1  0  0  0  0
 19 35  1  0  0  0  0
 19 36  1  0  0  0  0
M  END
$$$$
ZINC00017525
  -OEChem-08230709403D

 26 28  0     0  0  0  0  0  0999 V2000
   -3.4049    3.7848    0.0395 C   0  0  0  0  0  0  0  0  0  0  0  0
   -3.2972    2.7615   -0.8843 C   0  0  0  0  0  0  0  0  0  0  0  0
   -2.1756    1.9556   -0.8967 C   0  0  0  0  0  0  0  0  0  0  0  0
   -1.1555    2.1739    0.0196 C   0  0  0  0  0  0  0  0  0  0  0  0
   -1.2691    3.1986    0.9496 C   0  0  0  0  0  0  0  0  0  0  0  0
   -2.3904    4.0050    0.9530 C   0  0  0  0  0  0  0  0  0  0  0  0
   -0.0164    1.3581    0.0095 N   0  0  0  0  0  0  0  0  0  0  0  0
    0.0021   -0.0041    0.0020 C   0  0  0  0  0  0  0  0  0  0  0  0
    1.2301   -0.4342   -0.0120 N   0  0  0  0  0  0  0  0  0  0  0  0
    2.0853    0.6208   -0.0145 C   0  0  0  0  0  0  0  0  0  0  0  0
    1.3001    1.7861   -0.0008 C   0  0  0  0  0  0  0  0  0  0  0  0
    1.9078    3.0332    0.0006 C   0  0  0  0  0  0  0  0  0  0  0  0
    3.2830    3.1275   -0.0120 C   0  0  0  0  0  0  0  0  0  0  0  0
    4.0676    1.9781   -0.0261 C   0  0  0  0  0  0  0  0  0  0  0  0
    3.4782    0.7294   -0.0272 C   0  0  0  0  0  0  0  0  0  0  0  0
    5.4231    2.0854   -0.0385 O   0  0  0  0  0  0  0  0  0  0  0  0
   -4.2829    4.4137    0.0472 H   0  0  0  0  0  0  0  0  0  0  0  0
   -4.0909    2.5924   -1.5970 H   0  0  0  0  0  0  0  0  0  0  0  0
   -2.0920    1.1567   -1.6187 H   0  0  0  0  0  0  0  0  0  0  0  0
   -0.4793    3.3680    1.6665 H   0  0  0  0  0  0  0  0  0  0  0  0
   -2.4774    4.8050    1.6733 H   0  0  0  0  0  0  0  0  0  0  0  0
   -0.8746   -0.6349    0.0070 H   0  0  0  0  0  0  0  0  0  0  0  0
    1.3044    3.9288    0.0119 H   0  0  0  0  0  0  0  0  0  0  0  0
    3.7544    4.0992   -0.0106 H   0  0  0  0  0  0  0  0  0  0  0  0
    4.0913   -0.1596   -0.0382 H   0  0  0  0  0  0  0  0  0  0  0  0
    5.8067    2.1212   -0.9254 H   0  0  0  0  0  0  0  0  0  0  0  0
  1  6  2  0  0  0  0
  1  2  1  0  0  0  0
  1 17  1  0  0  0  0
  2  3  2  0  0  0  0
  2 18  1  0  0  0  0
  3  4  1  0  0  0  0
  3 19  1  0  0  0  0
  4  5  2  0  0  0  0
  4  7  1  0  0  0  0
  5  6  1  0  0  0  0
  5 20  1  0  0  0  0
  6 21  1  0  0  0  0
  7 11  1  0  0  0  0
  7  8  1  0  0  0  0
  8  9  2  0  0  0  0
  8 22  1  0  0  0  0
  9 10  1  0  0  0  0
 10 15  2  0  0  0  0
 10 11  1  0  0  0  0
 11 12  2  0  0  0  0
 12 13  1  0  0  0  0
 12 23  1  0  0  0  0
 13 14  2  0  0  0  0
 13 24  1  0  0  0  0
 14 15  1  0  0  0  0
 14 16  1  0  0  0  0
 15 25  1  0  0  0  0
 16 26  1  0  0  0  0
M  END
$$$$
ZINC00600761
  -OEChem-08230709403D

 48 51  0     0  0  0  0  0  0999 V2000
    4.9013   -3.9971    0.1409 C   0  0  0  0  0  0  0  0  0  0  0  0
    3.5916   -4.7425    0.1416 C   0  0  0  0  0  0  0  0  0  0  0  0
    3.5793   -6.1163    0.2894 C   0  0  0  0  0  0  0  0  0  0  0  0
    2.3812   -6.8038    0.2852 C   0  0  0  0  0  0  0  0  0  0  0  0
    1.1834   -6.1147    0.1377 C   0  0  0  0  0  0  0  0  0  0  0  0
    1.1918   -4.7348   -0.0057 C   0  0  0  0  0  0  0  0  0  0  0  0
    2.3973   -4.0470   -0.0011 C   0  0  0  0  0  0  0  0  0  0  0  0
    2.4102   -2.6565   -0.1457 N   0  0  0  0  0  0  0  0  0  0  0  0
    1.3626   -2.0171   -0.7884 C   0  0  0  0  0  0  0  0  0  0  0  0
    0.4235   -2.7460   -1.3746 N   0  0  0  0  0  0  0  0  0  0  0  0
   -0.5929   -2.1730   -1.9990 C   0  0  0  0  0  0  0  0  0  0  0  0
   -0.6719   -0.7919   -2.0376 C   0  0  0  0  0  0  0  0  0  0  0  0
    0.3325   -0.0500   -1.4108 C   0  0  0  0  0  0  0  0  0  0  0  0
    1.3283   -0.6941   -0.8063 N   0  0  0  0  0  0  0  0  0  0  0  0
    0.2931    1.4325   -1.4241 C   0  0  0  0  0  0  0  0  0  0  0  0
    1.2979    2.1756   -0.7971 C   0  0  0  0  0  0  0  0  0  0  0  0
    1.2156    3.5565   -0.8383 C   0  0  0  0  0  0  0  0  0  0  0  0
    0.1519    4.1518   -1.4922 C   0  0  0  0  0  0  0  0  0  0  0  0
   -0.7811    3.4243   -2.0752 N   0  0  0  0  0  0  0  0  0  0  0  0
   -0.7427    2.1075   -2.0666 C   0  0  0  0  0  0  0  0  0  0  0  0
   -0.0290   -6.8116    0.1331 N   0  0  0  0  0  0  0  0  0  0  0  0
   -0.0687   -8.0922   -0.2852 C   0  0  0  0  0  0  0  0  0  0  0  0
    0.9284   -8.6118   -0.7474 O   0  0  0  0  0  0  0  0  0  0  0  0
   -1.3246   -8.8648   -0.1820 C   0  0  0  0  0  0  0  0  0  0  0  0
   -2.4697   -8.2730    0.3536 C   0  0  0  0  0  0  0  0  0  0  0  0
   -3.6400   -8.9981    0.4422 C   0  0  0  0  0  0  0  0  0  0  0  0
   -3.6772  -10.3127    0.0123 C   0  0  0  0  0  0  0  0  0  0  0  0
   -2.5443  -10.9070   -0.5147 C   0  0  0  0  0  0  0  0  0  0  0  0
   -1.3691  -10.1914   -0.6143 C   0  0  0  0  0  0  0  0  0  0  0  0
    5.1571   -3.7111    1.1612 H   0  0  0  0  0  0  0  0  0  0  0  0
    5.6842   -4.6386   -0.2637 H   0  0  0  0  0  0  0  0  0  0  0  0
    4.8100   -3.1026   -0.4751 H   0  0  0  0  0  0  0  0  0  0  0  0
    4.5088   -6.6541    0.4042 H   0  0  0  0  0  0  0  0  0  0  0  0
    2.3753   -7.8779    0.3972 H   0  0  0  0  0  0  0  0  0  0  0  0
    0.2624   -4.1970   -0.1209 H   0  0  0  0  0  0  0  0  0  0  0  0
    3.1526   -2.1393    0.2039 H   0  0  0  0  0  0  0  0  0  0  0  0
   -1.3527   -2.7766   -2.4731 H   0  0  0  0  0  0  0  0  0  0  0  0
   -1.4910   -0.2991   -2.5402 H   0  0  0  0  0  0  0  0  0  0  0  0
    2.1172    1.6844   -0.2932 H   0  0  0  0  0  0  0  0  0  0  0  0
    1.9738    4.1629   -0.3652 H   0  0  0  0  0  0  0  0  0  0  0  0
    0.0846    5.2291   -1.5263 H   0  0  0  0  0  0  0  0  0  0  0  0
   -1.5233    1.5461   -2.5585 H   0  0  0  0  0  0  0  0  0  0  0  0
   -0.8414   -6.3733    0.4311 H   0  0  0  0  0  0  0  0  0  0  0  0
   -2.4407   -7.2484    0.6940 H   0  0  0  0  0  0  0  0  0  0  0  0
   -4.5278   -8.5401    0.8526 H   0  0  0  0  0  0  0  0  0  0  0  0
   -4.5947  -10.8773    0.0880 H   0  0  0  0  0  0  0  0  0  0  0  0
   -2.5802  -11.9332   -0.8492 H   0  0  0  0  0  0  0  0  0  0  0  0
   -0.4854  -10.6565   -1.0256 H   0  0  0  0  0  0  0  0  0  0  0  0
  1  2  1  0  0  0  0
  1 30  1  0  0  0  0
  1 31  1  0  0  0  0
  1 32  1  0  0  0  0
  2  7  2  0  0  0  0
  2  3  1  0  0  0  0
  3  4  2  0  0  0  0
  3 33  1  0  0  0  0
  4  5  1  0  0  0  0
  4 34  1  0  0  0  0
  5  6  2  0  0  0  0
  5 21  1  0  0  0  0
  6  7  1  0  0  0  0
  6 35  1  0  0  0  0
  7  8  1  0  0  0  0
  8  9  1  0  0  0  0
  8 36  1  0  0  0  0
  9 14  2  0  0  0  0
  9 10  1  0  0  0  0
 10 11  2  0  0  0  0
 11 12  1  0  0  0  0
 11 37  1  0  0  0  0
 12 13  2  0  0  0  0
 12 38  1  0  0  0  0
 13 14  1  0  0  0  0
 13 15  1  0  0  0  0
 15 20  2  0  0  0  0
 15 16  1  0  0  0  0
 16 17  2  0  0  0  0
 16 39  1  0  0  0  0
 17 18  1  0  0  0  0
 17 40  1  0  0  0  0
 18 19  2  0  0  0  0
 18 41  1  0  0  0  0
 19 20  1  0  0  0  0
 20 42  1  0  0  0  0
 21 22  1  0  0  0  0
 21 43  1  0  0  0  0
 22 23  2  0  0  0  0
 22 24  1  0  0  0  0
 24 29  2  0  0  0  0
 24 25  1  0  0  0  0
 25 26  2  0  0  0  0
 25 44  1  0  0  0  0
 26 27  1  0  0  0  0
 26 45  1  0  0  0  0
 27 28  2  0  0  0  0
 27 46  1  0  0  0  0
 28 29  1  0  0  0  0
 28 47  1  0  0  0  0
 29 48  1  0  0  0  0
M  END
$$$$
ZINC00601820
  -OEChem-08230709403D

 40 43  0     0  0  0  0  0  0999 V2000
    0.0591    1.0896    0.1025 C   0  0  0  0  0  0  0  0  0  0  0  0
   -0.4512    1.5807    1.3849 N   0  0  0  0  0  0  0  0  0  0  0  0
   -0.5646    2.9313    1.5982 C   0  0  0  0  0  0  0  0  0  0  0  0
   -1.0598    3.4211    2.8262 C   0  0  0  0  0  0  0  0  0  0  0  0
   -1.4333    2.5225    3.8517 C   0  0  0  0  0  0  0  0  0  0  0  0
   -1.3114    1.1768    3.6318 C   0  0  0  0  0  0  0  0  0  0  0  0
   -0.7992    0.7020    2.3445 C   0  0  0  0  0  0  0  0  0  0  0  0
   -0.6876   -0.4937    2.1405 O   0  0  0  0  0  0  0  0  0  0  0  0
   -1.6939    0.2094    4.6868 C   0  0  0  0  0  0  0  0  0  0  0  0
   -0.7486   -0.2216    5.6184 C   0  0  0  0  0  0  0  0  0  0  0  0
   -1.1129   -1.1199    6.6022 C   0  0  0  0  0  0  0  0  0  0  0  0
   -2.4088   -1.6003    6.6589 C   0  0  0  0  0  0  0  0  0  0  0  0
   -3.3493   -1.1811    5.7353 C   0  0  0  0  0  0  0  0  0  0  0  0
   -2.9995   -0.2791    4.7496 C   0  0  0  0  0  0  0  0  0  0  0  0
   -4.1812    0.2452    3.5911 Cl  0  0  0  0  0  0  0  0  0  0  0  0
    0.8802    0.3746    5.5445 Cl  0  0  0  0  0  0  0  0  0  0  0  0
   -1.1651    4.8089    3.0016 C   0  0  0  0  0  0  0  0  0  0  0  0
   -0.8015    5.6004    2.0099 N   0  0  0  0  0  0  0  0  0  0  0  0
   -0.3442    5.1038    0.8660 C   0  0  0  0  0  0  0  0  0  0  0  0
   -0.2270    3.8022    0.6537 N   0  0  0  0  0  0  0  0  0  0  0  0
    0.0231    5.9781   -0.1398 N   0  0  0  0  0  0  0  0  0  0  0  0
   -0.1964    7.3460    0.0113 C   0  0  0  0  0  0  0  0  0  0  0  0
   -1.3017    7.8194    0.7175 C   0  0  0  0  0  0  0  0  0  0  0  0
   -1.4807    9.1807    0.8480 C   0  0  0  0  0  0  0  0  0  0  0  0
   -0.6279   10.0303    0.3069 N   0  0  0  0  0  0  0  0  0  0  0  0
    0.4274    9.6218   -0.3726 C   0  0  0  0  0  0  0  0  0  0  0  0
    0.6804    8.2770   -0.5446 C   0  0  0  0  0  0  0  0  0  0  0  0
    0.0840   -0.0001    0.1147 H   0  0  0  0  0  0  0  0  0  0  0  0
    1.0660    1.4743   -0.0592 H   0  0  0  0  0  0  0  0  0  0  0  0
   -0.5932    1.4291   -0.7022 H   0  0  0  0  0  0  0  0  0  0  0  0
   -1.8093    2.8921    4.7943 H   0  0  0  0  0  0  0  0  0  0  0  0
   -0.3832   -1.4511    7.3264 H   0  0  0  0  0  0  0  0  0  0  0  0
   -2.6874   -2.3060    7.4275 H   0  0  0  0  0  0  0  0  0  0  0  0
   -4.3594   -1.5602    5.7848 H   0  0  0  0  0  0  0  0  0  0  0  0
   -1.5356    5.2210    3.9287 H   0  0  0  0  0  0  0  0  0  0  0  0
    0.4337    5.6395   -0.9508 H   0  0  0  0  0  0  0  0  0  0  0  0
   -2.0057    7.1297    1.1593 H   0  0  0  0  0  0  0  0  0  0  0  0
   -2.3320    9.5564    1.3964 H   0  0  0  0  0  0  0  0  0  0  0  0
    1.1010   10.3500   -0.7996 H   0  0  0  0  0  0  0  0  0  0  0  0
    1.5454    7.9496   -1.1023 H   0  0  0  0  0  0  0  0  0  0  0  0
  1  2  1  0  0  0  0
  1 28  1  0  0  0  0
  1 29  1  0  0  0  0
  1 30  1  0  0  0  0
  2  7  1  0  0  0  0
  2  3  1  0  0  0  0
  3 20  2  0  0  0  0
  3  4  1  0  0  0  0
  4  5  1  0  0  0  0
  4 17  2  0  0  0  0
  5  6  2  0  0  0  0
  5 31  1  0  0  0  0
  6  7  1  0  0  0  0
  6  9  1  0  0  0  0
  7  8  2  0  0  0  0
  9 14  2  0  0  0  0
  9 10  1  0  0  0  0
 10 11  2  0  0  0  0
 10 16  1  0  0  0  0
 11 12  1  0  0  0  0
 11 32  1  0  0  0  0
 12 13  2  0  0  0  0
 12 33  1  0  0  0  0
 13 14  1  0  0  0  0
 13 34  1  0  0  0  0
 14 15  1  0  0  0  0
 17 18  1  0  0  0  0
 17 35  1  0  0  0  0
 18 19  2  0  0  0  0
 19 20  1  0  0  0  0
 19 21  1  0  0  0  0
 21 22  1  0  0  0  0
 21 36  1  0  0  0  0
 22 27  2  0  0  0  0
 22 23  1  0  0  0  0
 23 24  2  0  0  0  0
 23 37  1  0  0  0  0
 24 25  1  0  0  0  0
 24 38  1  0  0  0  0
 25 26  2  0  0  0  0
 26 27  1  0  0  0  0
 26 39  1  0  0  0  0
 27 40  1  0  0  0  0
M  END
$$$$
ZINC00838734
  -OEChem-08230709403D

 41 44  0     0  0  0  0  0  0999 V2000
    0.0685    1.0902    0.1116 C   0  0  0  0  0  0  0  0  0  0  0  0
   -0.4262    1.5833    1.3993 N   0  0  0  0  0  0  0  0  0  0  0  0
   -0.5385    2.9342    1.6114 C   0  0  0  0  0  0  0  0  0  0  0  0
   -1.0181    3.4258    2.8448 C   0  0  0  0  0  0  0  0  0  0  0  0
   -1.3769    2.5290    3.8769 C   0  0  0  0  0  0  0  0  0  0  0  0
   -1.2565    1.1829    3.6581 C   0  0  0  0  0  0  0  0  0  0  0  0
   -0.7608    0.7061    2.3651 C   0  0  0  0  0  0  0  0  0  0  0  0
   -0.6510   -0.4900    2.1618 O   0  0  0  0  0  0  0  0  0  0  0  0
   -1.6239    0.2172    4.7199 C   0  0  0  0  0  0  0  0  0  0  0  0
   -0.6659   -0.2109    5.6398 C   0  0  0  0  0  0  0  0  0  0  0  0
   -1.0162   -1.1072    6.6305 C   0  0  0  0  0  0  0  0  0  0  0  0
   -2.3108   -1.5889    6.7053 C   0  0  0  0  0  0  0  0  0  0  0  0
   -3.2639   -1.1726    5.7933 C   0  0  0  0  0  0  0  0  0  0  0  0
   -2.9280   -0.2726    4.8010 C   0  0  0  0  0  0  0  0  0  0  0  0
   -4.1254    0.2477    3.6568 Cl  0  0  0  0  0  0  0  0  0  0  0  0
    0.9613    0.3864    5.5428 Cl  0  0  0  0  0  0  0  0  0  0  0  0
   -1.1230    4.8140    3.0188 C   0  0  0  0  0  0  0  0  0  0  0  0
   -0.7738    5.6039    2.0208 N   0  0  0  0  0  0  0  0  0  0  0  0
   -0.3311    5.1056    0.8717 C   0  0  0  0  0  0  0  0  0  0  0  0
   -0.2145    3.8035    0.6608 N   0  0  0  0  0  0  0  0  0  0  0  0
    0.0210    5.9779   -0.1404 N   0  0  0  0  0  0  0  0  0  0  0  0
   -0.1997    7.3500    0.0111 C   0  0  0  0  0  0  0  0  0  0  0  0
   -1.3057    7.8032    0.7189 C   0  0  0  0  0  0  0  0  0  0  0  0
   -1.5178    9.1593    0.8713 C   0  0  0  0  0  0  0  0  0  0  0  0
   -0.6364   10.0658    0.3112 C   0  0  0  0  0  0  0  0  0  0  0  0
    0.4626    9.6181   -0.3989 C   0  0  0  0  0  0  0  0  0  0  0  0
    0.6834    8.2633   -0.5505 C   0  0  0  0  0  0  0  0  0  0  0  0
    0.0950    0.0006    0.1257 H   0  0  0  0  0  0  0  0  0  0  0  0
    1.0729    1.4758   -0.0636 H   0  0  0  0  0  0  0  0  0  0  0  0
   -0.5942    1.4272   -0.6854 H   0  0  0  0  0  0  0  0  0  0  0  0
   -1.7408    2.9001    4.8236 H   0  0  0  0  0  0  0  0  0  0  0  0
   -0.2768   -1.4359    7.3458 H   0  0  0  0  0  0  0  0  0  0  0  0
   -2.5784   -2.2933    7.4789 H   0  0  0  0  0  0  0  0  0  0  0  0
   -4.2729   -1.5525    5.8572 H   0  0  0  0  0  0  0  0  0  0  0  0
   -1.4816    5.2275    3.9499 H   0  0  0  0  0  0  0  0  0  0  0  0
    0.4212    5.6382   -0.9561 H   0  0  0  0  0  0  0  0  0  0  0  0
   -1.9966    7.0958    1.1531 H   0  0  0  0  0  0  0  0  0  0  0  0
   -2.3753    9.5123    1.4249 H   0  0  0  0  0  0  0  0  0  0  0  0
   -0.8068   11.1258    0.4283 H   0  0  0  0  0  0  0  0  0  0  0  0
    1.1490   10.3287   -0.8350 H   0  0  0  0  0  0  0  0  0  0  0  0
    1.5417    7.9142   -1.1055 H   0  0  0  0  0  0  0  0  0  0  0  0
  1  2  1  0  0  0  0
  1 28  1  0  0  0  0
  1 29  1  0  0  0  0
  1 30  1  0  0  0  0
  2  7  1  0  0  0  0
  2  3  1  0  0  0  0
  3 20  2  0  0  0  0
  3  4  1  0  0  0  0
  4  5  1  0  0  0  0
  4 17  2  0  0  0  0
  5  6  2  0  0  0  0
  5 31  1  0  0  0  0
  6  7  1  0  0  0  0
  6  9  1  0  0  0  0
  7  8  2  0  0  0  0
  9 14  2  0  0  0  0
  9 10  1  0  0  0  0
 10 11  2  0  0  0  0
 10 16  1  0  0  0  0
 11 12  1  0  0  0  0
 11 32  1  0  0  0  0
 12 13  2  0  0  0  0
 12 33  1  0  0  0  0
 13 14  1  0  0  0  0
 13 34  1  0  0  0  0
 14 15  1  0  0  0  0
 17 18  1  0  0  0  0
 17 35  1  0  0  0  0
 18 19  2  0  0  0  0
 19 20  1  0  0  0  0
 19 21  1  0  0  0  0
 21 22  1  0  0  0  0
 21 36  1  0  0  0  0
 22 27  2  0  0  0  0
 22 23  1  0  0  0  0
 23 24  2  0  0  0  0
 23 37  1  0  0  0  0
 24 25  1  0  0  0  0
 24 38  1  0  0  0  0
 25 26  2  0  0  0  0
 25 39  1  0  0  0  0
 26 27  1  0  0  0  0
 26 40  1  0  0  0  0
 27 41  1  0  0  0  0
M  END
$$$$
ZINC01488976
  -OEChem-08230709403D

 40 43  0     0  0  0  0  0  0999 V2000
   -4.6784   -4.3744   -0.4055 C   0  0  0  0  0  0  0  0  0  0  0  0
   -4.7665   -2.9887   -0.2952 C   0  0  0  0  0  0  0  0  0  0  0  0
   -3.6456   -2.2183   -0.1942 C   0  0  0  0  0  0  0  0  0  0  0  0
   -2.3884   -2.8313   -0.1971 C   0  0  0  0  0  0  0  0  0  0  0  0
   -2.2974   -4.2428   -0.3143 C   0  0  0  0  0  0  0  0  0  0  0  0
   -3.4692   -5.0038   -0.4159 C   0  0  0  0  0  0  0  0  0  0  0  0
   -1.0135   -4.8185   -0.3182 C   0  0  0  0  0  0  0  0  0  0  0  0
    0.0372   -4.0369   -0.2196 N   0  0  0  0  0  0  0  0  0  0  0  0
   -0.0366   -2.7622   -0.1185 N   0  0  0  0  0  0  0  0  0  0  0  0
   -1.1815   -2.1017   -0.1030 C   0  0  0  0  0  0  0  0  0  0  0  0
   -1.1983   -0.7207    0.0092 N   0  0  0  0  0  0  0  0  0  0  0  0
    0.0010   -0.0027   -0.0148 C   0  0  0  0  0  0  0  0  0  0  0  0
    0.1283    1.1645    0.7280 C   0  0  0  0  0  0  0  0  0  0  0  0
    1.3140    1.8719    0.7033 C   0  0  0  0  0  0  0  0  0  0  0  0
    2.3756    1.4195   -0.0605 C   0  0  0  0  0  0  0  0  0  0  0  0
    2.2522    0.2565   -0.8020 C   0  0  0  0  0  0  0  0  0  0  0  0
    1.0674   -0.4553   -0.7807 C   0  0  0  0  0  0  0  0  0  0  0  0
    3.5863   -0.3083   -1.7585 Cl  0  0  0  0  0  0  0  0  0  0  0  0
    3.8649    2.3111   -0.0886 Cl  0  0  0  0  0  0  0  0  0  0  0  0
   -0.8463   -6.3117   -0.4345 C   0  0  0  0  0  0  0  0  0  0  0  0
   -0.8375   -6.9249    0.9420 C   0  0  0  0  0  0  0  0  0  0  0  0
    0.3504   -7.0904    1.6377 C   0  0  0  0  0  0  0  0  0  0  0  0
    0.3189   -7.6527    2.8998 C   0  0  0  0  0  0  0  0  0  0  0  0
   -0.8214   -8.0383    3.4382 N   0  0  0  0  0  0  0  0  0  0  0  0
   -1.9694   -7.9005    2.8040 C   0  0  0  0  0  0  0  0  0  0  0  0
   -2.0165   -7.3422    1.5406 C   0  0  0  0  0  0  0  0  0  0  0  0
   -5.5827   -4.9597   -0.4837 H   0  0  0  0  0  0  0  0  0  0  0  0
   -5.7379   -2.5168   -0.2892 H   0  0  0  0  0  0  0  0  0  0  0  0
   -3.7281   -1.1448   -0.1092 H   0  0  0  0  0  0  0  0  0  0  0  0
   -3.4150   -6.0790   -0.5019 H   0  0  0  0  0  0  0  0  0  0  0  0
   -2.0423   -0.2520    0.1043 H   0  0  0  0  0  0  0  0  0  0  0  0
   -0.6998    1.5186    1.3241 H   0  0  0  0  0  0  0  0  0  0  0  0
    1.4128    2.7794    1.2804 H   0  0  0  0  0  0  0  0  0  0  0  0
    0.9726   -1.3647   -1.3555 H   0  0  0  0  0  0  0  0  0  0  0  0
   -1.6731   -6.7260   -1.0116 H   0  0  0  0  0  0  0  0  0  0  0  0
    0.0949   -6.5338   -0.9373 H   0  0  0  0  0  0  0  0  0  0  0  0
    1.2880   -6.7808    1.2002 H   0  0  0  0  0  0  0  0  0  0  0  0
    1.2395   -7.7820    3.4496 H   0  0  0  0  0  0  0  0  0  0  0  0
   -2.8832   -8.2281    3.2772 H   0  0  0  0  0  0  0  0  0  0  0  0
   -2.9596   -7.2327    1.0260 H   0  0  0  0  0  0  0  0  0  0  0  0
  1  6  2  0  0  0  0
  1  2  1  0  0  0  0
  1 27  1  0  0  0  0
  2  3  2  0  0  0  0
  2 28  1  0  0  0  0
  3  4  1  0  0  0  0
  3 29  1  0  0  0  0
  4 10  2  0  0  0  0
  4  5  1  0  0  0  0
  5  6  1  0  0  0  0
  5  7  2  0  0  0  0
  6 30  1  0  0  0  0
  7  8  1  0  0  0  0
  7 20  1  0  0  0  0
  8  9  2  0  0  0  0
  9 10  1  0  0  0  0
 10 11  1  0  0  0  0
 11 12  1  0  0  0  0
 11 31  1  0  0  0  0
 12 17  2  0  0  0  0
 12 13  1  0  0  0  0
 13 14  2  0  0  0  0
 13 32  1  0  0  0  0
 14 15  1  0  0  0  0
 14 33  1  0  0  0  0
 15 16  2  0  0  0  0
 15 19  1  0  0  0  0
 16 17  1  0  0  0  0
 16 18  1  0  0  0  0
 17 34  1  0  0  0  0
 20 21  1  0  0  0  0
 20 35  1  0  0  0  0
 20 36  1  0  0  0  0
 21 26  2  0  0  0  0
 21 22  1  0  0  0  0
 22 23  2  0  0  0  0
 22 37  1  0  0  0  0
 23 24  1  0  0  0  0
 23 38  1  0  0  0  0
 24 25  2  0  0  0  0
 25 26  1  0  0  0  0
 25 39  1  0  0  0  0
 26 40  1  0  0  0  0
M  END
$$$$
ZINC02047503
  -OEChem-08230709403D

 45 48  0     0  0  0  0  0  0999 V2000
    0.0685    1.0902    0.1116 C   0  0  0  0  0  0  0  0  0  0  0  0
   -0.4262    1.5833    1.3993 N   0  0  0  0  0  0  0  0  0  0  0  0
   -0.5386    2.9342    1.6113 C   0  0  0  0  0  0  0  0  0  0  0  0
   -1.0182    3.4258    2.8448 C   0  0  0  0  0  0  0  0  0  0  0  0
   -1.3770    2.5290    3.8769 C   0  0  0  0  0  0  0  0  0  0  0  0
   -1.2566    1.1828    3.6580 C   0  0  0  0  0  0  0  0  0  0  0  0
   -0.7609    0.7061    2.3650 C   0  0  0  0  0  0  0  0  0  0  0  0
   -0.6511   -0.4900    2.1618 O   0  0  0  0  0  0  0  0  0  0  0  0
   -1.6241    0.2171    4.7198 C   0  0  0  0  0  0  0  0  0  0  0  0
   -0.6661   -0.2109    5.6397 C   0  0  0  0  0  0  0  0  0  0  0  0
   -1.0165   -1.1073    6.6304 C   0  0  0  0  0  0  0  0  0  0  0  0
   -2.3111   -1.5889    6.7051 C   0  0  0  0  0  0  0  0  0  0  0  0
   -3.2642   -1.1726    5.7932 C   0  0  0  0  0  0  0  0  0  0  0  0
   -2.9282   -0.2726    4.8008 C   0  0  0  0  0  0  0  0  0  0  0  0
   -4.1255    0.2477    3.6566 Cl  0  0  0  0  0  0  0  0  0  0  0  0
    0.9610    0.3864    5.5428 Cl  0  0  0  0  0  0  0  0  0  0  0  0
   -1.1231    4.8140    3.0188 C   0  0  0  0  0  0  0  0  0  0  0  0
   -0.7739    5.6039    2.0208 N   0  0  0  0  0  0  0  0  0  0  0  0
   -0.3311    5.1056    0.8717 C   0  0  0  0  0  0  0  0  0  0  0  0
   -0.2145    3.8035    0.6608 N   0  0  0  0  0  0  0  0  0  0  0  0
    0.0210    5.9779   -0.1404 N   0  0  0  0  0  0  0  0  0  0  0  0
   -0.1997    7.3500    0.0111 C   0  0  0  0  0  0  0  0  0  0  0  0
   -1.3058    7.8032    0.7190 C   0  0  0  0  0  0  0  0  0  0  0  0
   -1.5179    9.1592    0.8714 C   0  0  0  0  0  0  0  0  0  0  0  0
   -0.6364   10.0658    0.3112 C   0  0  0  0  0  0  0  0  0  0  0  0
    0.4624    9.6181   -0.3988 C   0  0  0  0  0  0  0  0  0  0  0  0
    0.6833    8.2631   -0.5504 C   0  0  0  0  0  0  0  0  0  0  0  0
    1.4197   10.6097   -1.0082 C   0  0  0  0  0  0  0  0  0  0  0  0
    0.9930   10.9310   -2.3336 O   0  0  0  0  0  0  0  0  0  0  0  0
    0.0950    0.0006    0.1256 H   0  0  0  0  0  0  0  0  0  0  0  0
    1.0728    1.4758   -0.0636 H   0  0  0  0  0  0  0  0  0  0  0  0
   -0.5942    1.4272   -0.6855 H   0  0  0  0  0  0  0  0  0  0  0  0
   -1.7410    2.9000    4.8236 H   0  0  0  0  0  0  0  0  0  0  0  0
   -0.2771   -1.4360    7.3457 H   0  0  0  0  0  0  0  0  0  0  0  0
   -2.5787   -2.2934    7.4788 H   0  0  0  0  0  0  0  0  0  0  0  0
   -4.2732   -1.5525    5.8570 H   0  0  0  0  0  0  0  0  0  0  0  0
   -1.4817    5.2275    3.9498 H   0  0  0  0  0  0  0  0  0  0  0  0
    0.4212    5.6382   -0.9561 H   0  0  0  0  0  0  0  0  0  0  0  0
   -1.9968    7.0958    1.1532 H   0  0  0  0  0  0  0  0  0  0  0  0
   -2.3754    9.5121    1.4250 H   0  0  0  0  0  0  0  0  0  0  0  0
   -0.8068   11.1258    0.4283 H   0  0  0  0  0  0  0  0  0  0  0  0
    1.5416    7.9141   -1.1054 H   0  0  0  0  0  0  0  0  0  0  0  0
    1.4384   11.5159   -0.4028 H   0  0  0  0  0  0  0  0  0  0  0  0
    2.4189   10.1755   -1.0434 H   0  0  0  0  0  0  0  0  0  0  0  0
    1.5640   11.5657   -2.7877 H   0  0  0  0  0  0  0  0  0  0  0  0
  1  2  1  0  0  0  0
  1 30  1  0  0  0  0
  1 31  1  0  0  0  0
  1 32  1  0  0  0  0
  2  7  1  0  0  0  0
  2  3  1  0  0  0  0
  3 20  2  0  0  0  0
  3  4  1  0  0  0  0
  4  5  1  0  0  0  0
  4 17  2  0  0  0  0
  5  6  2  0  0  0  0
  5 33  1  0  0  0  0
  6  7  1  0  0  0  0
  6  9  1  0  0  0  0
  7  8  2  0  0  0  0
  9 14  2  0  0  0  0
  9 10  1  0  0  0  0
 10 11  2  0  0  0  0
 10 16  1  0  0  0  0
 11 12  1  0  0  0  0
 11 34  1  0  0  0  0
 12 13  2  0  0  0  0
 12 35  1  0  0  0  0
 13 14  1  0  0  0  0
 13 36  1  0  0  0  0
 14 15  1  0  0  0  0
 17 18  1  0  0  0  0
 17 37  1  0  0  0  0
 18 19  2  0  0  0  0
 19 20  1  0  0  0  0
 19 21  1  0  0  0  0
 21 22  1  0  0  0  0
 21 38  1  0  0  0  0
 22 27  2  0  0  0  0
 22 23  1  0  0  0  0
 23 24  2  0  0  0  0
 23 39  1  0  0  0  0
 24 25  1  0  0  0  0
 24 40  1  0  0  0  0
 25 26  2  0  0  0  0
 25 41  1  0  0  0  0
 26 27  1  0  0  0  0
 26 28  1  0  0  0  0
 27 42  1  0  0  0  0
 28 29  1  0  0  0  0
 28 43  1  0  0  0  0
 28 44  1  0  0  0  0
 29 45  1  0  0  0  0
M  END
$$$$
ZINC03815223
  -OEChem-08230709403D

 45 48  0     0  0  0  0  0  0999 V2000
   -3.8390    7.9998    7.4838 C   0  0  0  0  0  0  0  0  0  0  0  0
   -3.2868    8.9285    6.4944 N   0  0  0  0  0  0  0  0  0  0  0  0
   -2.7444    8.4396    5.3328 C   0  0  0  0  0  0  0  0  0  0  0  0
   -2.2079    9.3208    4.3691 C   0  0  0  0  0  0  0  0  0  0  0  0
   -2.2258   10.7164    4.5933 C   0  0  0  0  0  0  0  0  0  0  0  0
   -2.7695   11.1950    5.7550 C   0  0  0  0  0  0  0  0  0  0  0  0
   -3.3170   10.2535    6.7341 C   0  0  0  0  0  0  0  0  0  0  0  0
   -3.8026   10.6709    7.7704 O   0  0  0  0  0  0  0  0  0  0  0  0
   -2.8033   12.6524    6.0196 C   0  0  0  0  0  0  0  0  0  0  0  0
   -1.7424   13.2687    6.6843 C   0  0  0  0  0  0  0  0  0  0  0  0
   -1.7781   14.6284    6.9240 C   0  0  0  0  0  0  0  0  0  0  0  0
   -2.8671   15.3773    6.5156 C   0  0  0  0  0  0  0  0  0  0  0  0
   -3.9242   14.7718    5.8605 C   0  0  0  0  0  0  0  0  0  0  0  0
   -3.8988   13.4137    5.6103 C   0  0  0  0  0  0  0  0  0  0  0  0
   -5.2270   12.6554    4.7891 Cl  0  0  0  0  0  0  0  0  0  0  0  0
   -0.3781   12.3293    7.2039 Cl  0  0  0  0  0  0  0  0  0  0  0  0
   -1.6623    8.7799    3.1952 C   0  0  0  0  0  0  0  0  0  0  0  0
   -1.6678    7.4690    3.0417 N   0  0  0  0  0  0  0  0  0  0  0  0
   -2.1863    6.6702    3.9680 C   0  0  0  0  0  0  0  0  0  0  0  0
   -2.7120    7.1338    5.0914 N   0  0  0  0  0  0  0  0  0  0  0  0
   -2.1714    5.3052    3.7538 N   0  0  0  0  0  0  0  0  0  0  0  0
   -1.7307    4.7946    2.5293 C   0  0  0  0  0  0  0  0  0  0  0  0
   -1.9630    5.5024    1.3562 C   0  0  0  0  0  0  0  0  0  0  0  0
   -1.5272    4.9980    0.1466 C   0  0  0  0  0  0  0  0  0  0  0  0
   -0.8546    3.7914    0.0999 C   0  0  0  0  0  0  0  0  0  0  0  0
   -0.6244    3.0776    1.2675 C   0  0  0  0  0  0  0  0  0  0  0  0
   -1.0602    3.5803    2.4836 C   0  0  0  0  0  0  0  0  0  0  0  0
    0.0329    1.8891    1.2194 O   0  0  0  0  0  0  0  0  0  0  0  0
    0.4531    1.4318   -0.0676 C   0  0  0  0  0  0  0  0  0  0  0  0
   -3.0568    7.7078    8.1844 H   0  0  0  0  0  0  0  0  0  0  0  0
   -4.6495    8.4866    8.0263 H   0  0  0  0  0  0  0  0  0  0  0  0
   -4.2218    7.1141    6.9767 H   0  0  0  0  0  0  0  0  0  0  0  0
   -1.8168   11.3948    3.8592 H   0  0  0  0  0  0  0  0  0  0  0  0
   -0.9558   15.1074    7.4347 H   0  0  0  0  0  0  0  0  0  0  0  0
   -2.8922   16.4395    6.7094 H   0  0  0  0  0  0  0  0  0  0  0  0
   -4.7715   15.3621    5.5443 H   0  0  0  0  0  0  0  0  0  0  0  0
   -1.2424    9.4223    2.4353 H   0  0  0  0  0  0  0  0  0  0  0  0
   -2.4666    4.7013    4.4530 H   0  0  0  0  0  0  0  0  0  0  0  0
   -2.4850    6.4473    1.3903 H   0  0  0  0  0  0  0  0  0  0  0  0
   -1.7083    5.5496   -0.7641 H   0  0  0  0  0  0  0  0  0  0  0  0
   -0.5111    3.4017   -0.8469 H   0  0  0  0  0  0  0  0  0  0  0  0
   -0.8779    3.0284    3.3938 H   0  0  0  0  0  0  0  0  0  0  0  0
    0.9638    0.4744    0.0360 H   0  0  0  0  0  0  0  0  0  0  0  0
    1.1335    2.1608   -0.5079 H   0  0  0  0  0  0  0  0  0  0  0  0
   -0.4173    1.3114   -0.7124 H   0  0  0  0  0  0  0  0  0  0  0  0
  1  2  1  0  0  0  0
  1 30  1  0  0  0  0
  1 31  1  0  0  0  0
  1 32  1  0  0  0  0
  2  7  1  0  0  0  0
  2  3  1  0  0  0  0
  3 20  2  0  0  0  0
  3  4  1  0  0  0  0
  4  5  1  0  0  0  0
  4 17  2  0  0  0  0
  5  6  2  0  0  0  0
  5 33  1  0  0  0  0
  6  7  1  0  0  0  0
  6  9  1  0  0  0  0
  7  8  2  0  0  0  0
  9 14  2  0  0  0  0
  9 10  1  0  0  0  0
 10 11  2  0  0  0  0
 10 16  1  0  0  0  0
 11 12  1  0  0  0  0
 11 34  1  0  0  0  0
 12 13  2  0  0  0  0
 12 35  1  0  0  0  0
 13 14  1  0  0  0  0
 13 36  1  0  0  0  0
 14 15  1  0  0  0  0
 17 18  1  0  0  0  0
 17 37  1  0  0  0  0
 18 19  2  0  0  0  0
 19 20  1  0  0  0  0
 19 21  1  0  0  0  0
 21 22  1  0  0  0  0
 21 38  1  0  0  0  0
 22 27  2  0  0  0  0
 22 23  1  0  0  0  0
 23 24  2  0  0  0  0
 23 39  1  0  0  0  0
 24 25  1  0  0  0  0
 24 40  1  0  0  0  0
 25 26  2  0  0  0  0
 25 41  1  0  0  0  0
 26 27  1  0  0  0  0
 26 28  1  0  0  0  0
 27 42  1  0  0  0  0
 28 29  1  0  0  0  0
 29 43  1  0  0  0  0
 29 44  1  0  0  0  0
 29 45  1  0  0  0  0
M  END
$$$$
ZINC03815240
  -OEChem-08230709403D

 63 66  0     0  0  0  0  0  0999 V2000
    4.3966   -4.7837   -2.5468 C   0  0  0  0  0  0  0  0  0  0  0  0
    2.8964   -4.6021   -2.7861 C   0  0  0  0  0  0  0  0  0  0  0  0
    2.4461   -6.8910   -2.1372 C   0  0  0  0  0  0  0  0  0  0  0  0
    1.8425   -7.2999   -3.4823 C   0  0  0  0  0  0  0  0  0  0  0  0
    2.4154   -5.1324   -0.4731 C   0  0  0  0  0  0  0  0  0  0  0  0
    1.8626   -3.7372   -0.1755 C   0  0  0  0  0  0  0  0  0  0  0  0
    0.4386   -3.7538   -0.2937 O   0  0  0  0  0  0  0  0  0  0  0  0
   -0.2140   -2.5840   -0.0593 C   0  0  0  0  0  0  0  0  0  0  0  0
   -1.5967   -2.5300   -0.1569 C   0  0  0  0  0  0  0  0  0  0  0  0
   -2.2601   -1.3423    0.0800 C   0  0  0  0  0  0  0  0  0  0  0  0
   -1.5427   -0.2019    0.4166 C   0  0  0  0  0  0  0  0  0  0  0  0
   -0.1586   -0.2569    0.5145 C   0  0  0  0  0  0  0  0  0  0  0  0
    0.5033   -1.4453    0.2768 C   0  0  0  0  0  0  0  0  0  0  0  0
   -2.2146    1.0029    0.6565 N   0  0  0  0  0  0  0  0  0  0  0  0
   -3.4618    0.9918    1.2505 C   0  0  0  0  0  0  0  0  0  0  0  0
   -3.9572   -0.1650    1.6772 N   0  0  0  0  0  0  0  0  0  0  0  0
   -5.1437   -0.2299    2.2512 C   0  0  0  0  0  0  0  0  0  0  0  0
   -5.8809    0.9543    2.4052 C   0  0  0  0  0  0  0  0  0  0  0  0
   -7.1573    0.9487    3.0126 C   0  0  0  0  0  0  0  0  0  0  0  0
   -7.8369    2.1304    3.1401 C   0  0  0  0  0  0  0  0  0  0  0  0
   -7.2276    3.3671    2.6461 C   0  0  0  0  0  0  0  0  0  0  0  0
   -7.8250    4.4230    2.7559 O   0  0  0  0  0  0  0  0  0  0  0  0
   -6.0096    3.3430    2.0714 N   0  0  0  0  0  0  0  0  0  0  0  0
   -5.3213    2.1634    1.9394 C   0  0  0  0  0  0  0  0  0  0  0  0
   -4.1173    2.1350    1.3785 N   0  0  0  0  0  0  0  0  0  0  0  0
   -5.4137    4.5888    1.5828 C   0  0  0  0  0  0  0  0  0  0  0  0
   -9.1768    2.1577    3.7717 C   0  0  0  0  0  0  0  0  0  0  0  0
  -10.3226    1.9980    2.9915 C   0  0  0  0  0  0  0  0  0  0  0  0
  -11.5685    2.0201    3.5872 C   0  0  0  0  0  0  0  0  0  0  0  0
  -11.6824    2.2097    4.9527 C   0  0  0  0  0  0  0  0  0  0  0  0
  -10.5507    2.3740    5.7310 C   0  0  0  0  0  0  0  0  0  0  0  0
   -9.2987    2.3491    5.1486 C   0  0  0  0  0  0  0  0  0  0  0  0
   -7.8797    2.5560    6.1271 Cl  0  0  0  0  0  0  0  0  0  0  0  0
  -10.1822    1.7665    1.2768 Cl  0  0  0  0  0  0  0  0  0  0  0  0
    4.9531   -4.1230   -3.2115 H   0  0  0  0  0  0  0  0  0  0  0  0
    4.6315   -4.5389   -1.5110 H   0  0  0  0  0  0  0  0  0  0  0  0
    4.6739   -5.8185   -2.7475 H   0  0  0  0  0  0  0  0  0  0  0  0
    2.6589   -4.8621   -3.8177 H   0  0  0  0  0  0  0  0  0  0  0  0
    2.6219   -3.5637   -2.6008 H   0  0  0  0  0  0  0  0  0  0  0  0
    3.5263   -7.0339   -2.1651 H   0  0  0  0  0  0  0  0  0  0  0  0
    2.0186   -7.5058   -1.3452 H   0  0  0  0  0  0  0  0  0  0  0  0
    2.0860   -8.3423   -3.6879 H   0  0  0  0  0  0  0  0  0  0  0  0
    0.7598   -7.1800   -3.4463 H   0  0  0  0  0  0  0  0  0  0  0  0
    2.2519   -6.6689   -4.2712 H   0  0  0  0  0  0  0  0  0  0  0  0
    3.4910   -5.1423   -0.2968 H   0  0  0  0  0  0  0  0  0  0  0  0
    1.9336   -5.8608    0.1791 H   0  0  0  0  0  0  0  0  0  0  0  0
    2.2779   -3.0226   -0.8861 H   0  0  0  0  0  0  0  0  0  0  0  0
    2.1397   -3.4450    0.8374 H   0  0  0  0  0  0  0  0  0  0  0  0
   -2.1544   -3.4170   -0.4187 H   0  0  0  0  0  0  0  0  0  0  0  0
   -3.3362   -1.2993   -0.0007 H   0  0  0  0  0  0  0  0  0  0  0  0
    0.4000    0.6295    0.7766 H   0  0  0  0  0  0  0  0  0  0  0  0
    1.5798   -1.4882    0.3529 H   0  0  0  0  0  0  0  0  0  0  0  0
   -1.8044    1.8453    0.4058 H   0  0  0  0  0  0  0  0  0  0  0  0
   -5.5388   -1.1742    2.5955 H   0  0  0  0  0  0  0  0  0  0  0  0
   -7.5900    0.0261    3.3703 H   0  0  0  0  0  0  0  0  0  0  0  0
   -5.7018    4.7463    0.5434 H   0  0  0  0  0  0  0  0  0  0  0  0
   -5.7679    5.4230    2.1883 H   0  0  0  0  0  0  0  0  0  0  0  0
   -4.3278    4.5242    1.6530 H   0  0  0  0  0  0  0  0  0  0  0  0
  -12.4560    1.8924    2.9851 H   0  0  0  0  0  0  0  0  0  0  0  0
  -12.6591    2.2300    5.4131 H   0  0  0  0  0  0  0  0  0  0  0  0
  -10.6465    2.5224    6.7965 H   0  0  0  0  0  0  0  0  0  0  0  0
    2.1179   -5.4728   -1.8803 N   0  3  0  0  0  0  0  0  0  0  0  0
    1.1169   -5.3253   -2.0547 H   0  0  0  0  0  0  0  0  0  0  0  0
  1  2  1  0  0  0  0
  1 35  1  0  0  0  0
  1 36  1  0  0  0  0
  1 37  1  0  0  0  0
  2 38  1  0  0  0  0
  2 39  1  0  0  0  0
  2 62  1  0  0  0  0
  3  4  1  0  0  0  0
  3 40  1  0  0  0  0
  3 41  1  0  0  0  0
  3 62  1  0  0  0  0
  4 42  1  0  0  0  0
  4 43  1  0  0  0  0
  4 44  1  0  0  0  0
  5  6  1  0  0  0  0
  5 45  1  0  0  0  0
  5 46  1  0  0  0  0
  5 62  1  0  0  0  0
  6  7  1  0  0  0  0
  6 47  1  0  0  0  0
  6 48  1  0  0  0  0
  7  8  1  0  0  0  0
  8 13  2  0  0  0  0
  8  9  1  0  0  0  0
  9 10  2  0  0  0  0
  9 49  1  0  0  0  0
 10 11  1  0  0  0  0
 10 50  1  0  0  0  0
 11 12  2  0  0  0  0
 11 14  1  0  0  0  0
 12 13  1  0  0  0  0
 12 51  1  0  0  0  0
 13 52  1  0  0  0  0
 14 15  1  0  0  0  0
 14 53  1  0  0  0  0
 15 25  2  0  0  0  0
 15 16  1  0  0  0  0
 16 17  2  0  0  0  0
 17 18  1  0  0  0  0
 17 54  1  0  0  0  0
 18 24  2  0  0  0  0
 18 19  1  0  0  0  0
 19 20  2  0  0  0  0
 19 55  1  0  0  0  0
 20 21  1  0  0  0  0
 20 27  1  0  0  0  0
 21 22  2  0  0  0  0
 21 23  1  0  0  0  0
 23 24  1  0  0  0  0
 23 26  1  0  0  0  0
 24 25  1  0  0  0  0
 26 56  1  0  0  0  0
 26 57  1  0  0  0  0
 26 58  1  0  0  0  0
 27 32  2  0  0  0  0
 27 28  1  0  0  0  0
 28 29  2  0  0  0  0
 28 34  1  0  0  0  0
 29 30  1  0  0  0  0
 29 59  1  0  0  0  0
 30 31  2  0  0  0  0
 30 60  1  0  0  0  0
 31 32  1  0  0  0  0
 31 61  1  0  0  0  0
 32 33  1  0  0  0  0
 62 63  1  0  0  0  0
M  CHG  1  62   1
M  END
$$$$
ZINC03815261
  -OEChem-08230709403D

 52 55  0     0  0  0  0  0  0999 V2000
    0.0685    1.0902    0.1116 C   0  0  0  0  0  0  0  0  0  0  0  0
   -0.4262    1.5833    1.3993 N   0  0  0  0  0  0  0  0  0  0  0  0
   -0.5385    2.9342    1.6114 C   0  0  0  0  0  0  0  0  0  0  0  0
   -1.0181    3.4258    2.8448 C   0  0  0  0  0  0  0  0  0  0  0  0
   -1.3769    2.5290    3.8769 C   0  0  0  0  0  0  0  0  0  0  0  0
   -1.2565    1.1829    3.6581 C   0  0  0  0  0  0  0  0  0  0  0  0
   -0.7608    0.7061    2.3651 C   0  0  0  0  0  0  0  0  0  0  0  0
   -0.6510   -0.4900    2.1618 O   0  0  0  0  0  0  0  0  0  0  0  0
   -1.6239    0.2172    4.7199 C   0  0  0  0  0  0  0  0  0  0  0  0
   -0.6659   -0.2109    5.6398 C   0  0  0  0  0  0  0  0  0  0  0  0
   -1.0162   -1.1072    6.6305 C   0  0  0  0  0  0  0  0  0  0  0  0
   -2.3108   -1.5889    6.7053 C   0  0  0  0  0  0  0  0  0  0  0  0
   -3.2639   -1.1726    5.7933 C   0  0  0  0  0  0  0  0  0  0  0  0
   -2.9280   -0.2726    4.8010 C   0  0  0  0  0  0  0  0  0  0  0  0
   -4.1254    0.2477    3.6568 Cl  0  0  0  0  0  0  0  0  0  0  0  0
    0.9613    0.3864    5.5428 Cl  0  0  0  0  0  0  0  0  0  0  0  0
   -1.1230    4.8140    3.0188 C   0  0  0  0  0  0  0  0  0  0  0  0
   -0.7738    5.6039    2.0208 N   0  0  0  0  0  0  0  0  0  0  0  0
   -0.3311    5.1056    0.8717 C   0  0  0  0  0  0  0  0  0  0  0  0
   -0.2145    3.8035    0.6608 N   0  0  0  0  0  0  0  0  0  0  0  0
    0.0210    5.9779   -0.1404 N   0  0  0  0  0  0  0  0  0  0  0  0
   -0.1997    7.3500    0.0111 C   0  0  0  0  0  0  0  0  0  0  0  0
   -1.3057    7.8032    0.7189 C   0  0  0  0  0  0  0  0  0  0  0  0
   -1.5173    9.1593    0.8720 C   0  0  0  0  0  0  0  0  0  0  0  0
   -0.6364   10.0658    0.3112 C   0  0  0  0  0  0  0  0  0  0  0  0
    0.4626    9.6181   -0.3989 C   0  0  0  0  0  0  0  0  0  0  0  0
    0.6834    8.2633   -0.5505 C   0  0  0  0  0  0  0  0  0  0  0  0
   -0.8742   11.5449    0.4746 C   0  0  0  0  0  0  0  0  0  0  0  0
   -1.7351   12.0540   -0.6832 C   0  0  0  0  0  0  0  0  0  0  0  0
   -1.9766   13.5557   -0.5173 C   0  0  0  0  0  0  0  0  0  0  0  0
   -2.8245   14.0572   -1.6577 C   0  0  0  0  0  0  0  0  0  0  0  0
   -3.1974   13.2920   -2.5152 O   0  0  0  0  0  0  0  0  0  0  0  0
    0.0950    0.0006    0.1257 H   0  0  0  0  0  0  0  0  0  0  0  0
    1.0729    1.4758   -0.0636 H   0  0  0  0  0  0  0  0  0  0  0  0
   -0.5942    1.4272   -0.6854 H   0  0  0  0  0  0  0  0  0  0  0  0
   -1.7408    2.9001    4.8236 H   0  0  0  0  0  0  0  0  0  0  0  0
   -0.2768   -1.4359    7.3458 H   0  0  0  0  0  0  0  0  0  0  0  0
   -2.5784   -2.2933    7.4789 H   0  0  0  0  0  0  0  0  0  0  0  0
   -4.2729   -1.5525    5.8572 H   0  0  0  0  0  0  0  0  0  0  0  0
   -1.4816    5.2275    3.9499 H   0  0  0  0  0  0  0  0  0  0  0  0
    0.4212    5.6382   -0.9561 H   0  0  0  0  0  0  0  0  0  0  0  0
   -1.9966    7.0958    1.1531 H   0  0  0  0  0  0  0  0  0  0  0  0
   -2.3744    9.5123    1.4263 H   0  0  0  0  0  0  0  0  0  0  0  0
    1.1490   10.3287   -0.8350 H   0  0  0  0  0  0  0  0  0  0  0  0
    1.5421    7.9142   -1.1049 H   0  0  0  0  0  0  0  0  0  0  0  0
   -1.3888   11.7282    1.4179 H   0  0  0  0  0  0  0  0  0  0  0  0
    0.0816   12.0688    0.4744 H   0  0  0  0  0  0  0  0  0  0  0  0
   -1.2205   11.8708   -1.6265 H   0  0  0  0  0  0  0  0  0  0  0  0
   -2.6909   11.5301   -0.6830 H   0  0  0  0  0  0  0  0  0  0  0  0
   -2.4911   13.7390    0.4260 H   0  0  0  0  0  0  0  0  0  0  0  0
   -1.0207   14.0796   -0.5175 H   0  0  0  0  0  0  0  0  0  0  0  0
   -3.1655   15.3539   -1.7209 O   0  5  0  0  0  0  0  0  0  0  0  0
  1  2  1  0  0  0  0
  1 33  1  0  0  0  0
  1 34  1  0  0  0  0
  1 35  1  0  0  0  0
  2  7  1  0  0  0  0
  2  3  1  0  0  0  0
  3 20  2  0  0  0  0
  3  4  1  0  0  0  0
  4  5  1  0  0  0  0
  4 17  2  0  0  0  0
  5  6  2  0  0  0  0
  5 36  1  0  0  0  0
  6  7  1  0  0  0  0
  6  9  1  0  0  0  0
  7  8  2  0  0  0  0
  9 14  2  0  0  0  0
  9 10  1  0  0  0  0
 10 11  2  0  0  0  0
 10 16  1  0  0  0  0
 11 12  1  0  0  0  0
 11 37  1  0  0  0  0
 12 13  2  0  0  0  0
 12 38  1  0  0  0  0
 13 14  1  0  0  0  0
 13 39  1  0  0  0  0
 14 15  1  0  0  0  0
 17 18  1  0  0  0  0
 17 40  1  0  0  0  0
 18 19  2  0  0  0  0
 19 20  1  0  0  0  0
 19 21  1  0  0  0  0
 21 22  1  0  0  0  0
 21 41  1  0  0  0  0
 22 27  2  0  0  0  0
 22 23  1  0  0  0  0
 23 24  2  0  0  0  0
 23 42  1  0  0  0  0
 24 25  1  0  0  0  0
 24 43  1  0  0  0  0
 25 26  2  0  0  0  0
 25 28  1  0  0  0  0
 26 27  1  0  0  0  0
 26 44  1  0  0  0  0
 27 45  1  0  0  0  0
 28 29  1  0  0  0  0
 28 46  1  0  0  0  0
 28 47  1  0  0  0  0
 29 30  1  0  0  0  0
 29 48  1  0  0  0  0
 29 49  1  0  0  0  0
 30 31  1  0  0  0  0
 30 50  1  0  0  0  0
 30 51  1  0  0  0  0
 31 32  2  0  0  0  0
 31 52  1  0  0  0  0
M  CHG  1  52  -1
M  END
$$$$
ZINC03815288
  -OEChem-08230709403D

 42 45  0     0  0  0  0  0  0999 V2000
    0.8590   10.0323    0.4454 C   0  0  0  0  0  0  0  0  0  0  0  0
    2.1520    9.3435    0.4335 N   0  0  0  0  0  0  0  0  0  0  0  0
    2.1922    7.9764    0.3242 C   0  0  0  0  0  0  0  0  0  0  0  0
    3.4297    7.2973    0.3112 C   0  0  0  0  0  0  0  0  0  0  0  0
    4.6396    8.0215    0.4105 C   0  0  0  0  0  0  0  0  0  0  0  0
    4.5897    9.3854    0.5187 C   0  0  0  0  0  0  0  0  0  0  0  0
    3.2892   10.0588    0.5296 C   0  0  0  0  0  0  0  0  0  0  0  0
    3.2358   11.2720    0.6256 O   0  0  0  0  0  0  0  0  0  0  0  0
    5.8401   10.1731    0.6244 C   0  0  0  0  0  0  0  0  0  0  0  0
    6.3880   10.4532    1.8768 C   0  0  0  0  0  0  0  0  0  0  0  0
    7.5560   11.1847    1.9682 C   0  0  0  0  0  0  0  0  0  0  0  0
    8.1775   11.6472    0.8222 C   0  0  0  0  0  0  0  0  0  0  0  0
    7.6370   11.3770   -0.4221 C   0  0  0  0  0  0  0  0  0  0  0  0
    6.4718   10.6429   -0.5277 C   0  0  0  0  0  0  0  0  0  0  0  0
    5.7945   10.3060   -2.0902 Cl  0  0  0  0  0  0  0  0  0  0  0  0
    5.6064    9.8789    3.3166 Cl  0  0  0  0  0  0  0  0  0  0  0  0
    3.4266    5.8989    0.1984 C   0  0  0  0  0  0  0  0  0  0  0  0
    2.2669    5.2745    0.1139 N   0  0  0  0  0  0  0  0  0  0  0  0
    1.1213    5.9471    0.1244 C   0  0  0  0  0  0  0  0  0  0  0  0
    1.0737    7.2663    0.2291 N   0  0  0  0  0  0  0  0  0  0  0  0
   -0.0643    5.2439    0.0281 N   0  0  0  0  0  0  0  0  0  0  0  0
   -0.0425    3.8650   -0.2009 C   0  0  0  0  0  0  0  0  0  0  0  0
   -1.0219    3.0516    0.3562 C   0  0  0  0  0  0  0  0  0  0  0  0
   -0.9997    1.6892    0.1306 C   0  0  0  0  0  0  0  0  0  0  0  0
   -0.0044    1.1313   -0.6495 C   0  0  0  0  0  0  0  0  0  0  0  0
    0.9791    1.9380   -1.2044 C   0  0  0  0  0  0  0  0  0  0  0  0
    0.9576    3.3064   -0.9844 C   0  0  0  0  0  0  0  0  0  0  0  0
    1.9599    1.3872   -1.9669 O   0  0  0  0  0  0  0  0  0  0  0  0
    0.5036   10.1202    1.4720 H   0  0  0  0  0  0  0  0  0  0  0  0
    0.9731   11.0267    0.0140 H   0  0  0  0  0  0  0  0  0  0  0  0
    0.1384    9.4623   -0.1411 H   0  0  0  0  0  0  0  0  0  0  0  0
    5.5890    7.5068    0.4007 H   0  0  0  0  0  0  0  0  0  0  0  0
    7.9830   11.3994    2.9367 H   0  0  0  0  0  0  0  0  0  0  0  0
    9.0886   12.2219    0.8993 H   0  0  0  0  0  0  0  0  0  0  0  0
    8.1269   11.7413   -1.3130 H   0  0  0  0  0  0  0  0  0  0  0  0
    4.3535    5.3446    0.1854 H   0  0  0  0  0  0  0  0  0  0  0  0
   -0.9117    5.7071    0.1193 H   0  0  0  0  0  0  0  0  0  0  0  0
   -1.8007    3.4851    0.9661 H   0  0  0  0  0  0  0  0  0  0  0  0
   -1.7612    1.0585    0.5650 H   0  0  0  0  0  0  0  0  0  0  0  0
    0.0105    0.0656   -0.8237 H   0  0  0  0  0  0  0  0  0  0  0  0
    1.7198    3.9362   -1.4189 H   0  0  0  0  0  0  0  0  0  0  0  0
    1.7457    1.3391   -2.9087 H   0  0  0  0  0  0  0  0  0  0  0  0
  1  2  1  0  0  0  0
  1 29  1  0  0  0  0
  1 30  1  0  0  0  0
  1 31  1  0  0  0  0
  2  7  1  0  0  0  0
  2  3  1  0  0  0  0
  3 20  2  0  0  0  0
  3  4  1  0  0  0  0
  4  5  1  0  0  0  0
  4 17  2  0  0  0  0
  5  6  2  0  0  0  0
  5 32  1  0  0  0  0
  6  7  1  0  0  0  0
  6  9  1  0  0  0  0
  7  8  2  0  0  0  0
  9 14  2  0  0  0  0
  9 10  1  0  0  0  0
 10 11  2  0  0  0  0
 10 16  1  0  0  0  0
 11 12  1  0  0  0  0
 11 33  1  0  0  0  0
 12 13  2  0  0  0  0
 12 34  1  0  0  0  0
 13 14  1  0  0  0  0
 13 35  1  0  0  0  0
 14 15  1  0  0  0  0
 17 18  1  0  0  0  0
 17 36  1  0  0  0  0
 18 19  2  0  0  0  0
 19 20  1  0  0  0  0
 19 21  1  0  0  0  0
 21 22  1  0  0  0  0
 21 37  1  0  0  0  0
 22 27  2  0  0  0  0
 22 23  1  0  0  0  0
 23 24  2  0  0  0  0
 23 38  1  0  0  0  0
 24 25  1  0  0  0  0
 24 39  1  0  0  0  0
 25 26  2  0  0  0  0
 25 40  1  0  0  0  0
 26 27  1  0  0  0  0
 26 28  1  0  0  0  0
 27 41  1  0  0  0  0
 28 42  1  0  0  0  0
M  END
$$$$
ZINC03815289
  -OEChem-08230709403D

 73 76  0     0  0  0  0  0  0999 V2000
   -4.5476    1.9598   -6.0779 C   0  0  0  0  0  0  0  0  0  0  0  0
   -3.1554    1.3302   -5.9996 C   0  0  0  0  0  0  0  0  0  0  0  0
   -2.2965    1.8463   -7.1558 C   0  0  0  0  0  0  0  0  0  0  0  0
   -3.2778   -0.1919   -6.0951 C   0  0  0  0  0  0  0  0  0  0  0  0
   -2.5274    1.6906   -4.7260 N   0  0  0  0  0  0  0  0  0  0  0  0
   -3.1104    1.3372   -3.5634 C   0  0  0  0  0  0  0  0  0  0  0  0
   -4.1574    0.7194   -3.5715 O   0  0  0  0  0  0  0  0  0  0  0  0
   -2.5327    1.6688   -2.3917 N   0  0  0  0  0  0  0  0  0  0  0  0
   -3.1328    1.3050   -1.1949 C   0  0  0  0  0  0  0  0  0  0  0  0
   -2.5145    1.6602    0.0229 C   0  0  0  0  0  0  0  0  0  0  0  0
   -3.1075    1.2934    1.2205 C   0  0  0  0  0  0  0  0  0  0  0  0
   -4.3191    0.5850    1.1654 C   0  0  0  0  0  0  0  0  0  0  0  0
   -4.9944    0.1771    2.3285 C   0  0  0  0  0  0  0  0  0  0  0  0
   -6.1242   -0.4885    2.1986 N   0  0  0  0  0  0  0  0  0  0  0  0
   -6.6263   -0.7753    0.9994 C   0  0  0  0  0  0  0  0  0  0  0  0
   -6.0355   -0.4176   -0.1249 N   0  0  0  0  0  0  0  0  0  0  0  0
   -4.8825    0.2626   -0.0970 C   0  0  0  0  0  0  0  0  0  0  0  0
   -4.2670    0.6354   -1.2206 N   0  0  0  0  0  0  0  0  0  0  0  0
   -7.8150   -1.4767    0.9293 N   0  0  0  0  0  0  0  0  0  0  0  0
   -8.4959   -1.8890    2.1592 C   0  0  0  0  0  0  0  0  0  0  0  0
   -9.7785   -2.6436    1.8036 C   0  0  0  0  0  0  0  0  0  0  0  0
  -10.4896   -3.0741    3.0880 C   0  0  0  0  0  0  0  0  0  0  0  0
  -12.6921   -2.9089    2.0947 C   0  0  0  0  0  0  0  0  0  0  0  0
  -13.9253   -3.7171    1.6845 C   0  0  0  0  0  0  0  0  0  0  0  0
  -13.5403   -5.2394    3.5265 C   0  0  0  0  0  0  0  0  0  0  0  0
  -12.3071   -4.4312    3.9367 C   0  0  0  0  0  0  0  0  0  0  0  0
  -15.7428   -5.0741    2.5331 C   0  0  0  0  0  0  0  0  0  0  0  0
   -1.2380    2.4142    0.0210 C   0  0  0  0  0  0  0  0  0  0  0  0
   -1.2484    3.8090    0.0341 C   0  0  0  0  0  0  0  0  0  0  0  0
   -0.0556    4.5057    0.0264 C   0  0  0  0  0  0  0  0  0  0  0  0
    1.1473    3.8231    0.0117 C   0  0  0  0  0  0  0  0  0  0  0  0
    1.1644    2.4401    0.0040 C   0  0  0  0  0  0  0  0  0  0  0  0
   -0.0215    1.7317    0.0116 C   0  0  0  0  0  0  0  0  0  0  0  0
    0.0021   -0.0041    0.0020 Cl  0  0  0  0  0  0  0  0  0  0  0  0
   -2.7571    4.6675    0.0520 Cl  0  0  0  0  0  0  0  0  0  0  0  0
   -4.4604    3.0441   -6.0098 H   0  0  0  0  0  0  0  0  0  0  0  0
   -5.0148    1.6916   -7.0255 H   0  0  0  0  0  0  0  0  0  0  0  0
   -5.1595    1.5921   -5.2542 H   0  0  0  0  0  0  0  0  0  0  0  0
   -1.3046    1.3978   -7.1000 H   0  0  0  0  0  0  0  0  0  0  0  0
   -2.7637    1.5782   -8.1034 H   0  0  0  0  0  0  0  0  0  0  0  0
   -2.2092    2.9307   -7.0877 H   0  0  0  0  0  0  0  0  0  0  0  0
   -3.8897   -0.5596   -5.2714 H   0  0  0  0  0  0  0  0  0  0  0  0
   -3.7450   -0.4601   -7.0427 H   0  0  0  0  0  0  0  0  0  0  0  0
   -2.2859   -0.6404   -6.0393 H   0  0  0  0  0  0  0  0  0  0  0  0
   -1.6920    2.1835   -4.7195 H   0  0  0  0  0  0  0  0  0  0  0  0
   -1.6973    2.1617   -2.3852 H   0  0  0  0  0  0  0  0  0  0  0  0
   -2.6541    1.5480    2.1670 H   0  0  0  0  0  0  0  0  0  0  0  0
   -4.5967    0.4044    3.3065 H   0  0  0  0  0  0  0  0  0  0  0  0
   -8.1984   -1.6961    0.0657 H   0  0  0  0  0  0  0  0  0  0  0  0
   -7.8397   -2.5398    2.7371 H   0  0  0  0  0  0  0  0  0  0  0  0
   -8.7449   -1.0073    2.7496 H   0  0  0  0  0  0  0  0  0  0  0  0
  -10.4346   -1.9927    1.2257 H   0  0  0  0  0  0  0  0  0  0  0  0
   -9.5295   -3.5253    1.2131 H   0  0  0  0  0  0  0  0  0  0  0  0
   -9.8335   -3.7250    3.6659 H   0  0  0  0  0  0  0  0  0  0  0  0
  -10.7386   -2.1924    3.6785 H   0  0  0  0  0  0  0  0  0  0  0  0
  -12.9873   -2.1219    2.7887 H   0  0  0  0  0  0  0  0  0  0  0  0
  -12.2390   -2.4624    1.2096 H   0  0  0  0  0  0  0  0  0  0  0  0
  -13.6345   -4.4867    0.9696 H   0  0  0  0  0  0  0  0  0  0  0  0
  -14.6593   -3.0540    1.2265 H   0  0  0  0  0  0  0  0  0  0  0  0
  -13.2451   -6.0264    2.8325 H   0  0  0  0  0  0  0  0  0  0  0  0
  -13.9932   -5.6862    4.4116 H   0  0  0  0  0  0  0  0  0  0  0  0
  -11.5733   -5.0946    4.3945 H   0  0  0  0  0  0  0  0  0  0  0  0
  -12.5979   -3.6615    4.6516 H   0  0  0  0  0  0  0  0  0  0  0  0
  -16.1918   -5.4757    3.4416 H   0  0  0  0  0  0  0  0  0  0  0  0
  -16.4440   -4.3923    2.0520 H   0  0  0  0  0  0  0  0  0  0  0  0
  -15.5063   -5.8920    1.8525 H   0  0  0  0  0  0  0  0  0  0  0  0
   -0.0624    5.5856    0.0323 H   0  0  0  0  0  0  0  0  0  0  0  0
    2.0771    4.3724    0.0058 H   0  0  0  0  0  0  0  0  0  0  0  0
    2.1069    1.9129   -0.0075 H   0  0  0  0  0  0  0  0  0  0  0  0
  -11.7151   -3.8190    2.7284 N   0  3  0  0  0  0  0  0  0  0  0  0
  -11.4708   -4.5620    2.0633 H   0  0  0  0  0  0  0  0  0  0  0  0
  -14.5173   -4.3291    2.8925 N   0  3  0  0  0  0  0  0  0  0  0  0
  -14.7616   -3.5860    3.5576 H   0  0  0  0  0  0  0  0  0  0  0  0
  1  2  1  0  0  0  0
  1 36  1  0  0  0  0
  1 37  1  0  0  0  0
  1 38  1  0  0  0  0
  2  3  1  0  0  0  0
  2  4  1  0  0  0  0
  2  5  1  0  0  0  0
  3 39  1  0  0  0  0
  3 40  1  0  0  0  0
  3 41  1  0  0  0  0
  4 42  1  0  0  0  0
  4 43  1  0  0  0  0
  4 44  1  0  0  0  0
  5  6  1  0  0  0  0
  5 45  1  0  0  0  0
  6  7  2  0  0  0  0
  6  8  1  0  0  0  0
  8  9  1  0  0  0  0
  8 46  1  0  0  0  0
  9 18  2  0  0  0  0
  9 10  1  0  0  0  0
 10 11  2  0  0  0  0
 10 28  1  0  0  0  0
 11 12  1  0  0  0  0
 11 47  1  0  0  0  0
 12 17  2  0  0  0  0
 12 13  1  0  0  0  0
 13 14  2  0  0  0  0
 13 48  1  0  0  0  0
 14 15  1  0  0  0  0
 15 16  2  0  0  0  0
 15 19  1  0  0  0  0
 16 17  1  0  0  0  0
 17 18  1  0  0  0  0
 19 20  1  0  0  0  0
 19 49  1  0  0  0  0
 20 21  1  0  0  0  0
 20 50  1  0  0  0  0
 20 51  1  0  0  0  0
 21 22  1  0  0  0  0
 21 52  1  0  0  0  0
 21 53  1  0  0  0  0
 22 54  1  0  0  0  0
 22 55  1  0  0  0  0
 22 70  1  0  0  0  0
 23 24  1  0  0  0  0
 23 56  1  0  0  0  0
 23 57  1  0  0  0  0
 23 70  1  0  0  0  0
 24 58  1  0  0  0  0
 24 59  1  0  0  0  0
 24 72  1  0  0  0  0
 25 26  1  0  0  0  0
 25 60  1  0  0  0  0
 25 61  1  0  0  0  0
 25 72  1  0  0  0  0
 26 62  1  0  0  0  0
 26 63  1  0  0  0  0
 26 70  1  0  0  0  0
 27 64  1  0  0  0  0
 27 65  1  0  0  0  0
 27 66  1  0  0  0  0
 27 72  1  0  0  0  0
 28 33  2  0  0  0  0
 28 29  1  0  0  0  0
 29 30  2  0  0  0  0
 29 35  1  0  0  0  0
 30 31  1  0  0  0  0
 30 67  1  0  0  0  0
 31 32  2  0  0  0  0
 31 68  1  0  0  0  0
 32 33  1  0  0  0  0
 32 69  1  0  0  0  0
 33 34  1  0  0  0  0
 70 71  1  0  0  0  0
 72 73  1  0  0  0  0
M  CHG  2  70   1  72   1
M  END
$$$$
ZINC03815299
  -OEChem-08230709403D

 43 46  0     0  0  0  0  0  0999 V2000
    0.0695    1.0902    0.1128 C   0  0  0  0  0  0  0  0  0  0  0  0
   -0.4234    1.5836    1.4011 N   0  0  0  0  0  0  0  0  0  0  0  0
   -0.5357    2.9345    1.6130 C   0  0  0  0  0  0  0  0  0  0  0  0
   -1.0136    3.4263    2.8471 C   0  0  0  0  0  0  0  0  0  0  0  0
   -1.3712    2.5296    3.8797 C   0  0  0  0  0  0  0  0  0  0  0  0
   -1.2509    1.1835    3.6609 C   0  0  0  0  0  0  0  0  0  0  0  0
   -0.7566    0.7065    2.3675 C   0  0  0  0  0  0  0  0  0  0  0  0
   -0.6465   -0.4896    2.1646 O   0  0  0  0  0  0  0  0  0  0  0  0
   -1.6171    0.2179    4.7234 C   0  0  0  0  0  0  0  0  0  0  0  0
   -0.6581   -0.2099    5.6423 C   0  0  0  0  0  0  0  0  0  0  0  0
   -1.0070   -1.1072    6.6326 C   0  0  0  0  0  0  0  0  0  0  0  0
   -2.3015   -1.5886    6.7091 C   0  0  0  0  0  0  0  0  0  0  0  0
   -3.2558   -1.1722    5.7984 C   0  0  0  0  0  0  0  0  0  0  0  0
   -2.9211   -0.2719    4.8059 C   0  0  0  0  0  0  0  0  0  0  0  0
   -4.1199    0.2486    3.6632 Cl  0  0  0  0  0  0  0  0  0  0  0  0
    0.9686    0.3884    5.5442 Cl  0  0  0  0  0  0  0  0  0  0  0  0
   -1.1184    4.8145    3.0209 C   0  0  0  0  0  0  0  0  0  0  0  0
   -0.7703    5.6043    2.0224 N   0  0  0  0  0  0  0  0  0  0  0  0
   -0.3288    5.1057    0.8729 C   0  0  0  0  0  0  0  0  0  0  0  0
   -0.2122    3.8036    0.6621 N   0  0  0  0  0  0  0  0  0  0  0  0
    0.0221    5.9779   -0.1397 N   0  0  0  0  0  0  0  0  0  0  0  0
   -0.1985    7.3504    0.0118 C   0  0  0  0  0  0  0  0  0  0  0  0
   -1.3062    7.8023    0.7201 C   0  0  0  0  0  0  0  0  0  0  0  0
   -1.5263    9.1577    0.8769 C   0  0  0  0  0  0  0  0  0  0  0  0
   -0.6538   10.0721    0.3226 C   0  0  0  0  0  0  0  0  0  0  0  0
    0.4589    9.6289   -0.3951 C   0  0  0  0  0  0  0  0  0  0  0  0
    0.6840    8.2603   -0.5489 C   0  0  0  0  0  0  0  0  0  0  0  0
    1.3944   10.6055   -0.9900 C   0  0  0  0  0  0  0  0  0  0  0  0
    2.3615   10.2176   -1.6144 O   0  0  0  0  0  0  0  0  0  0  0  0
    0.0962    0.0006    0.1271 H   0  0  0  0  0  0  0  0  0  0  0  0
    1.0736    1.4760   -0.0639 H   0  0  0  0  0  0  0  0  0  0  0  0
   -0.5944    1.4270   -0.6834 H   0  0  0  0  0  0  0  0  0  0  0  0
   -1.7342    2.9008    4.8267 H   0  0  0  0  0  0  0  0  0  0  0  0
   -0.2666   -1.4366    7.3465 H   0  0  0  0  0  0  0  0  0  0  0  0
   -2.5683   -2.2930    7.4831 H   0  0  0  0  0  0  0  0  0  0  0  0
   -4.2647   -1.5521    5.8634 H   0  0  0  0  0  0  0  0  0  0  0  0
   -1.4761    5.2281    3.9523 H   0  0  0  0  0  0  0  0  0  0  0  0
    0.4216    5.6381   -0.9558 H   0  0  0  0  0  0  0  0  0  0  0  0
   -1.9951    7.0917    1.1524 H   0  0  0  0  0  0  0  0  0  0  0  0
   -2.3864    9.5026    1.4317 H   0  0  0  0  0  0  0  0  0  0  0  0
   -0.8318   11.1304    0.4436 H   0  0  0  0  0  0  0  0  0  0  0  0
    1.5427    7.9114   -1.1033 H   0  0  0  0  0  0  0  0  0  0  0  0
    1.1749   11.9261   -0.8401 O   0  5  0  0  0  0  0  0  0  0  0  0
  1  2  1  0  0  0  0
  1 30  1  0  0  0  0
  1 31  1  0  0  0  0
  1 32  1  0  0  0  0
  2  7  1  0  0  0  0
  2  3  1  0  0  0  0
  3 20  2  0  0  0  0
  3  4  1  0  0  0  0
  4  5  1  0  0  0  0
  4 17  2  0  0  0  0
  5  6  2  0  0  0  0
  5 33  1  0  0  0  0
  6  7  1  0  0  0  0
  6  9  1  0  0  0  0
  7  8  2  0  0  0  0
  9 14  2  0  0  0  0
  9 10  1  0  0  0  0
 10 11  2  0  0  0  0
 10 16  1  0  0  0  0
 11 12  1  0  0  0  0
 11 34  1  0  0  0  0
 12 13  2  0  0  0  0
 12 35  1  0  0  0  0
 13 14  1  0  0  0  0
 13 36  1  0  0  0  0
 14 15  1  0  0  0  0
 17 18  1  0  0  0  0
 17 37  1  0  0  0  0
 18 19  2  0  0  0  0
 19 20  1  0  0  0  0
 19 21  1  0  0  0  0
 21 22  1  0  0  0  0
 21 38  1  0  0  0  0
 22 27  2  0  0  0  0
 22 23  1  0  0  0  0
 23 24  2  0  0  0  0
 23 39  1  0  0  0  0
 24 25  1  0  0  0  0
 24 40  1  0  0  0  0
 25 26  2  0  0  0  0
 25 41  1  0  0  0  0
 26 27  1  0  0  0  0
 26 28  1  0  0  0  0
 27 42  1  0  0  0  0
 28 29  2  0  0  0  0
 28 43  1  0  0  0  0
M  CHG  1  43  -1
M  END
$$$$
ZINC03815302
  -OEChem-08230709403D

 44 47  0     0  0  0  0  0  0999 V2000
   -0.2303    0.9301    0.1276 C   0  0  0  0  0  0  0  0  0  0  0  0
   -0.7905    1.6082    1.3795 C   0  0  0  0  0  0  0  0  0  0  0  0
   -2.1926    1.2228    1.5577 N   0  0  0  0  0  0  0  0  0  0  0  0
   -3.1832    1.9813    0.9868 C   0  0  0  0  0  0  0  0  0  0  0  0
   -4.5390    1.6210    1.1448 C   0  0  0  0  0  0  0  0  0  0  0  0
   -4.8881    0.4799    1.9026 C   0  0  0  0  0  0  0  0  0  0  0  0
   -3.8931   -0.2679    2.4729 C   0  0  0  0  0  0  0  0  0  0  0  0
   -2.4965    0.1305    2.2849 C   0  0  0  0  0  0  0  0  0  0  0  0
   -1.6050   -0.5294    2.7885 O   0  0  0  0  0  0  0  0  0  0  0  0
   -4.2264   -1.4693    3.2733 C   0  0  0  0  0  0  0  0  0  0  0  0
   -4.4384   -1.3586    4.6481 C   0  0  0  0  0  0  0  0  0  0  0  0
   -4.7549   -2.4814    5.3875 C   0  0  0  0  0  0  0  0  0  0  0  0
   -4.8501   -3.7156    4.7701 C   0  0  0  0  0  0  0  0  0  0  0  0
   -4.6351   -3.8332    3.4087 C   0  0  0  0  0  0  0  0  0  0  0  0
   -4.3240   -2.7172    2.6567 C   0  0  0  0  0  0  0  0  0  0  0  0
   -4.0545   -2.8669    0.9483 Cl  0  0  0  0  0  0  0  0  0  0  0  0
   -4.3117    0.1881    5.4261 Cl  0  0  0  0  0  0  0  0  0  0  0  0
   -5.5207    2.4204    0.5401 C   0  0  0  0  0  0  0  0  0  0  0  0
   -5.1367    3.4741   -0.1560 N   0  0  0  0  0  0  0  0  0  0  0  0
   -3.8507    3.7801   -0.2875 C   0  0  0  0  0  0  0  0  0  0  0  0
   -2.8888    3.0566    0.2647 N   0  0  0  0  0  0  0  0  0  0  0  0
   -3.5041    4.8945   -1.0272 N   0  0  0  0  0  0  0  0  0  0  0  0
   -4.4879    5.6099   -1.7162 C   0  0  0  0  0  0  0  0  0  0  0  0
   -5.5746    4.9439   -2.2683 C   0  0  0  0  0  0  0  0  0  0  0  0
   -6.5475    5.6543   -2.9437 C   0  0  0  0  0  0  0  0  0  0  0  0
   -6.4352    7.0259   -3.0796 C   0  0  0  0  0  0  0  0  0  0  0  0
   -5.3517    7.6914   -2.5360 C   0  0  0  0  0  0  0  0  0  0  0  0
   -4.3780    6.9877   -1.8549 C   0  0  0  0  0  0  0  0  0  0  0  0
   -0.2982   -0.1520    0.2393 H   0  0  0  0  0  0  0  0  0  0  0  0
    0.8129    1.2169   -0.0049 H   0  0  0  0  0  0  0  0  0  0  0  0
   -0.8064    1.2424   -0.7434 H   0  0  0  0  0  0  0  0  0  0  0  0
   -0.2143    1.2960    2.2505 H   0  0  0  0  0  0  0  0  0  0  0  0
   -0.7225    2.6904    1.2679 H   0  0  0  0  0  0  0  0  0  0  0  0
   -5.9240    0.2021    2.0295 H   0  0  0  0  0  0  0  0  0  0  0  0
   -4.9243   -2.3963    6.4507 H   0  0  0  0  0  0  0  0  0  0  0  0
   -5.0931   -4.5913    5.3536 H   0  0  0  0  0  0  0  0  0  0  0  0
   -4.7109   -4.7997    2.9327 H   0  0  0  0  0  0  0  0  0  0  0  0
   -6.5683    2.1789    0.6423 H   0  0  0  0  0  0  0  0  0  0  0  0
   -2.5781    5.1804   -1.0685 H   0  0  0  0  0  0  0  0  0  0  0  0
   -5.6608    3.8722   -2.1661 H   0  0  0  0  0  0  0  0  0  0  0  0
   -7.3948    5.1376   -3.3698 H   0  0  0  0  0  0  0  0  0  0  0  0
   -7.1953    7.5786   -3.6118 H   0  0  0  0  0  0  0  0  0  0  0  0
   -5.2670    8.7626   -2.6439 H   0  0  0  0  0  0  0  0  0  0  0  0
   -3.5319    7.5079   -1.4309 H   0  0  0  0  0  0  0  0  0  0  0  0
  1  2  1  0  0  0  0
  1 29  1  0  0  0  0
  1 30  1  0  0  0  0
  1 31  1  0  0  0  0
  2  3  1  0  0  0  0
  2 32  1  0  0  0  0
  2 33  1  0  0  0  0
  3  8  1  0  0  0  0
  3  4  1  0  0  0  0
  4 21  2  0  0  0  0
  4  5  1  0  0  0  0
  5  6  1  0  0  0  0
  5 18  2  0  0  0  0
  6  7  2  0  0  0  0
  6 34  1  0  0  0  0
  7  8  1  0  0  0  0
  7 10  1  0  0  0  0
  8  9  2  0  0  0  0
 10 15  2  0  0  0  0
 10 11  1  0  0  0  0
 11 12  2  0  0  0  0
 11 17  1  0  0  0  0
 12 13  1  0  0  0  0
 12 35  1  0  0  0  0
 13 14  2  0  0  0  0
 13 36  1  0  0  0  0
 14 15  1  0  0  0  0
 14 37  1  0  0  0  0
 15 16  1  0  0  0  0
 18 19  1  0  0  0  0
 18 38  1  0  0  0  0
 19 20  2  0  0  0  0
 20 21  1  0  0  0  0
 20 22  1  0  0  0  0
 22 23  1  0  0  0  0
 22 39  1  0  0  0  0
 23 28  2  0  0  0  0
 23 24  1  0  0  0  0
 24 25  2  0  0  0  0
 24 40  1  0  0  0  0
 25 26  1  0  0  0  0
 25 41  1  0  0  0  0
 26 27  2  0  0  0  0
 26 42  1  0  0  0  0
 27 28  1  0  0  0  0
 27 43  1  0  0  0  0
 28 44  1  0  0  0  0
M  END
$$$$
ZINC03815307
  -OEChem-08230709403D

 62 65  0     0  0  0  0  0  0999 V2000
   -2.2664    2.6406    5.7207 C   0  0  0  0  0  0  0  0  0  0  0  0
   -1.0652    1.8152    5.8687 N   0  0  0  0  0  0  0  0  0  0  0  0
   -0.4094    1.3640    4.7512 C   0  0  0  0  0  0  0  0  0  0  0  0
    0.7497    0.5679    4.8763 C   0  0  0  0  0  0  0  0  0  0  0  0
    1.2453    0.2291    6.1562 C   0  0  0  0  0  0  0  0  0  0  0  0
    0.5843    0.6839    7.2655 C   0  0  0  0  0  0  0  0  0  0  0  0
   -0.6156    1.5073    7.1005 C   0  0  0  0  0  0  0  0  0  0  0  0
   -1.2098    1.9161    8.0821 O   0  0  0  0  0  0  0  0  0  0  0  0
    1.0781    0.3458    8.6209 C   0  0  0  0  0  0  0  0  0  0  0  0
    0.6245   -0.8061    9.2648 C   0  0  0  0  0  0  0  0  0  0  0  0
    1.0925   -1.1181   10.5262 C   0  0  0  0  0  0  0  0  0  0  0  0
    2.0012   -0.2863   11.1554 C   0  0  0  0  0  0  0  0  0  0  0  0
    2.4509    0.8598   10.5247 C   0  0  0  0  0  0  0  0  0  0  0  0
    1.9945    1.1808    9.2613 C   0  0  0  0  0  0  0  0  0  0  0  0
    2.5591    2.6202    8.4720 Cl  0  0  0  0  0  0  0  0  0  0  0  0
   -0.5209   -1.8478    8.4796 Cl  0  0  0  0  0  0  0  0  0  0  0  0
    1.3899    0.1267    3.7087 C   0  0  0  0  0  0  0  0  0  0  0  0
    0.8797    0.4693    2.5405 N   0  0  0  0  0  0  0  0  0  0  0  0
   -0.2103    1.2245    2.4609 C   0  0  0  0  0  0  0  0  0  0  0  0
   -0.8488    1.6644    3.5342 N   0  0  0  0  0  0  0  0  0  0  0  0
   -0.6984    1.5583    1.2133 N   0  0  0  0  0  0  0  0  0  0  0  0
   -0.0127    1.0858    0.0080 C   0  0  0  0  0  0  0  0  0  0  0  0
   -0.7527    1.5927   -1.2315 C   0  0  0  0  0  0  0  0  0  0  0  0
   -0.0366    1.0992   -2.4903 C   0  0  0  0  0  0  0  0  0  0  0  0
   -0.7766    1.6061   -3.7298 C   0  0  0  0  0  0  0  0  0  0  0  0
    1.2439    1.7395   -5.0583 C   0  0  0  0  0  0  0  0  0  0  0  0
    1.9566    1.1616   -6.2833 C   0  0  0  0  0  0  0  0  0  0  0  0
   -0.1814    0.8170   -7.3645 C   0  0  0  0  0  0  0  0  0  0  0  0
   -0.8941    1.3949   -6.1395 C   0  0  0  0  0  0  0  0  0  0  0  0
    1.8391    0.9504   -8.6929 C   0  0  0  0  0  0  0  0  0  0  0  0
   -3.1464    1.9984    5.6843 H   0  0  0  0  0  0  0  0  0  0  0  0
   -2.3472    3.3201    6.5692 H   0  0  0  0  0  0  0  0  0  0  0  0
   -2.1993    3.2176    4.7983 H   0  0  0  0  0  0  0  0  0  0  0  0
    2.1320   -0.3790    6.2574 H   0  0  0  0  0  0  0  0  0  0  0  0
    0.7451   -2.0112   11.0242 H   0  0  0  0  0  0  0  0  0  0  0  0
    2.3610   -0.5326   12.1435 H   0  0  0  0  0  0  0  0  0  0  0  0
    3.1601    1.5053   11.0215 H   0  0  0  0  0  0  0  0  0  0  0  0
    2.2790   -0.4839    3.7644 H   0  0  0  0  0  0  0  0  0  0  0  0
   -1.4954    2.1056    1.1349 H   0  0  0  0  0  0  0  0  0  0  0  0
    0.0021   -0.0041    0.0020 H   0  0  0  0  0  0  0  0  0  0  0  0
    1.0099    1.4631    0.0003 H   0  0  0  0  0  0  0  0  0  0  0  0
   -1.7753    1.2154   -1.2238 H   0  0  0  0  0  0  0  0  0  0  0  0
   -0.7675    2.6825   -1.2255 H   0  0  0  0  0  0  0  0  0  0  0  0
    0.9860    1.4765   -2.4981 H   0  0  0  0  0  0  0  0  0  0  0  0
   -0.0218    0.0093   -2.4963 H   0  0  0  0  0  0  0  0  0  0  0  0
   -1.7991    1.2288   -3.7221 H   0  0  0  0  0  0  0  0  0  0  0  0
   -0.7913    2.6960   -3.7239 H   0  0  0  0  0  0  0  0  0  0  0  0
    1.1429    2.8189   -5.1719 H   0  0  0  0  0  0  0  0  0  0  0  0
    1.8251    1.5206   -4.1625 H   0  0  0  0  0  0  0  0  0  0  0  0
    2.0818    0.0862   -6.1574 H   0  0  0  0  0  0  0  0  0  0  0  0
    2.9341    1.6318   -6.3908 H   0  0  0  0  0  0  0  0  0  0  0  0
   -0.0804   -0.2624   -7.2509 H   0  0  0  0  0  0  0  0  0  0  0  0
   -0.7628    1.0356   -8.2602 H   0  0  0  0  0  0  0  0  0  0  0  0
   -1.8715    0.9247   -6.0320 H   0  0  0  0  0  0  0  0  0  0  0  0
   -1.0193    2.4703   -6.2654 H   0  0  0  0  0  0  0  0  0  0  0  0
    1.2531    1.2172   -9.5725 H   0  0  0  0  0  0  0  0  0  0  0  0
    2.8229    1.4153   -8.7571 H   0  0  0  0  0  0  0  0  0  0  0  0
    1.9514   -0.1327   -8.6461 H   0  0  0  0  0  0  0  0  0  0  0  0
   -0.0853    1.1047   -4.9368 N   0  3  0  0  0  0  0  0  0  0  0  0
    0.0365    0.0886   -4.8536 H   0  0  0  0  0  0  0  0  0  0  0  0
    1.1480    1.4519   -7.4859 N   0  3  0  0  0  0  0  0  0  0  0  0
    1.0263    2.4680   -7.5691 H   0  0  0  0  0  0  0  0  0  0  0  0
  1  2  1  0  0  0  0
  1 31  1  0  0  0  0
  1 32  1  0  0  0  0
  1 33  1  0  0  0  0
  2  7  1  0  0  0  0
  2  3  1  0  0  0  0
  3 20  2  0  0  0  0
  3  4  1  0  0  0  0
  4  5  1  0  0  0  0
  4 17  2  0  0  0  0
  5  6  2  0  0  0  0
  5 34  1  0  0  0  0
  6  7  1  0  0  0  0
  6  9  1  0  0  0  0
  7  8  2  0  0  0  0
  9 14  2  0  0  0  0
  9 10  1  0  0  0  0
 10 11  2  0  0  0  0
 10 16  1  0  0  0  0
 11 12  1  0  0  0  0
 11 35  1  0  0  0  0
 12 13  2  0  0  0  0
 12 36  1  0  0  0  0
 13 14  1  0  0  0  0
 13 37  1  0  0  0  0
 14 15  1  0  0  0  0
 17 18  1  0  0  0  0
 17 38  1  0  0  0  0
 18 19  2  0  0  0  0
 19 20  1  0  0  0  0
 19 21  1  0  0  0  0
 21 22  1  0  0  0  0
 21 39  1  0  0  0  0
 22 23  1  0  0  0  0
 22 40  1  0  0  0  0
 22 41  1  0  0  0  0
 23 24  1  0  0  0  0
 23 42  1  0  0  0  0
 23 43  1  0  0  0  0
 24 25  1  0  0  0  0
 24 44  1  0  0  0  0
 24 45  1  0  0  0  0
 25 46  1  0  0  0  0
 25 47  1  0  0  0  0
 25 59  1  0  0  0  0
 26 27  1  0  0  0  0
 26 48  1  0  0  0  0
 26 49  1  0  0  0  0
 26 59  1  0  0  0  0
 27 50  1  0  0  0  0
 27 51  1  0  0  0  0
 27 61  1  0  0  0  0
 28 29  1  0  0  0  0
 28 52  1  0  0  0  0
 28 53  1  0  0  0  0
 28 61  1  0  0  0  0
 29 54  1  0  0  0  0
 29 55  1  0  0  0  0
 29 59  1  0  0  0  0
 30 56  1  0  0  0  0
 30 57  1  0  0  0  0
 30 58  1  0  0  0  0
 30 61  1  0  0  0  0
 59 60  1  0  0  0  0
 61 62  1  0  0  0  0
M  CHG  2  59   1  61   1
M  END
$$$$
ZINC03815308
  -OEChem-08230709403D

 46 49  0     0  0  0  0  0  0999 V2000
   -9.4546   -4.6479   -0.9492 C   0  0  0  0  0  0  0  0  0  0  0  0
   -8.9344   -4.1755   -2.2347 N   0  0  0  0  0  0  0  0  0  0  0  0
   -7.8393   -3.3493   -2.2619 C   0  0  0  0  0  0  0  0  0  0  0  0
   -7.3255   -2.8851   -3.4921 C   0  0  0  0  0  0  0  0  0  0  0  0
   -7.9362   -3.2683   -4.7080 C   0  0  0  0  0  0  0  0  0  0  0  0
   -9.0282   -4.0933   -4.6711 C   0  0  0  0  0  0  0  0  0  0  0  0
   -9.5359   -4.5568   -3.3779 C   0  0  0  0  0  0  0  0  0  0  0  0
  -10.5068   -5.2913   -3.3361 O   0  0  0  0  0  0  0  0  0  0  0  0
   -9.6908   -4.5129   -5.9281 C   0  0  0  0  0  0  0  0  0  0  0  0
  -10.7328   -3.7517   -6.4589 C   0  0  0  0  0  0  0  0  0  0  0  0
  -11.3436   -4.1463   -7.6331 C   0  0  0  0  0  0  0  0  0  0  0  0
  -10.9306   -5.2984   -8.2778 C   0  0  0  0  0  0  0  0  0  0  0  0
   -9.9015   -6.0601   -7.7544 C   0  0  0  0  0  0  0  0  0  0  0  0
   -9.2793   -5.6743   -6.5832 C   0  0  0  0  0  0  0  0  0  0  0  0
   -7.9887   -6.6323   -5.9273 Cl  0  0  0  0  0  0  0  0  0  0  0  0
  -11.2566   -2.3087   -5.6482 Cl  0  0  0  0  0  0  0  0  0  0  0  0
   -6.2039   -2.0424   -3.4758 C   0  0  0  0  0  0  0  0  0  0  0  0
   -5.6746   -1.7178   -2.3111 N   0  0  0  0  0  0  0  0  0  0  0  0
   -6.1852   -2.1737   -1.1726 C   0  0  0  0  0  0  0  0  0  0  0  0
   -7.2389   -2.9749   -1.1378 N   0  0  0  0  0  0  0  0  0  0  0  0
   -5.5914   -1.8029    0.0188 N   0  0  0  0  0  0  0  0  0  0  0  0
   -4.5481   -0.8724    0.0199 C   0  0  0  0  0  0  0  0  0  0  0  0
   -4.5383    0.1635   -0.9055 C   0  0  0  0  0  0  0  0  0  0  0  0
   -3.5058    1.0807   -0.9019 C   0  0  0  0  0  0  0  0  0  0  0  0
   -2.4826    0.9687    0.0215 C   0  0  0  0  0  0  0  0  0  0  0  0
   -2.4865   -0.0644    0.9407 C   0  0  0  0  0  0  0  0  0  0  0  0
   -3.5187   -0.9820    0.9460 C   0  0  0  0  0  0  0  0  0  0  0  0
   -1.3573    1.9712    0.0221 C   0  0  0  0  0  0  0  0  0  0  0  0
   -1.7105    3.1223    0.9283 C   0  0  0  0  0  0  0  0  0  0  0  0
   -2.7675    3.1280    1.5137 O   0  0  0  0  0  0  0  0  0  0  0  0
  -10.2009   -3.9451   -0.5788 H   0  0  0  0  0  0  0  0  0  0  0  0
   -9.9125   -5.6283   -1.0808 H   0  0  0  0  0  0  0  0  0  0  0  0
   -8.6374   -4.7219   -0.2317 H   0  0  0  0  0  0  0  0  0  0  0  0
   -7.5472   -2.9157   -5.6518 H   0  0  0  0  0  0  0  0  0  0  0  0
  -12.1478   -3.5560   -8.0470 H   0  0  0  0  0  0  0  0  0  0  0  0
  -11.4141   -5.6047   -9.1937 H   0  0  0  0  0  0  0  0  0  0  0  0
   -9.5840   -6.9588   -8.2624 H   0  0  0  0  0  0  0  0  0  0  0  0
   -5.7824   -1.6676   -4.3968 H   0  0  0  0  0  0  0  0  0  0  0  0
   -5.8986   -2.1882    0.8543 H   0  0  0  0  0  0  0  0  0  0  0  0
   -5.3369    0.2513   -1.6271 H   0  0  0  0  0  0  0  0  0  0  0  0
   -3.4978    1.8866   -1.6209 H   0  0  0  0  0  0  0  0  0  0  0  0
   -1.6836   -0.1516    1.6577 H   0  0  0  0  0  0  0  0  0  0  0  0
   -3.5235   -1.7860    1.6671 H   0  0  0  0  0  0  0  0  0  0  0  0
   -1.2000    2.3414   -0.9910 H   0  0  0  0  0  0  0  0  0  0  0  0
   -0.4453    1.4935    0.3800 H   0  0  0  0  0  0  0  0  0  0  0  0
   -0.8485    4.1385    1.0896 O   0  5  0  0  0  0  0  0  0  0  0  0
  1  2  1  0  0  0  0
  1 31  1  0  0  0  0
  1 32  1  0  0  0  0
  1 33  1  0  0  0  0
  2  7  1  0  0  0  0
  2  3  1  0  0  0  0
  3 20  2  0  0  0  0
  3  4  1  0  0  0  0
  4  5  1  0  0  0  0
  4 17  2  0  0  0  0
  5  6  2  0  0  0  0
  5 34  1  0  0  0  0
  6  7  1  0  0  0  0
  6  9  1  0  0  0  0
  7  8  2  0  0  0  0
  9 14  2  0  0  0  0
  9 10  1  0  0  0  0
 10 11  2  0  0  0  0
 10 16  1  0  0  0  0
 11 12  1  0  0  0  0
 11 35  1  0  0  0  0
 12 13  2  0  0  0  0
 12 36  1  0  0  0  0
 13 14  1  0  0  0  0
 13 37  1  0  0  0  0
 14 15  1  0  0  0  0
 17 18  1  0  0  0  0
 17 38  1  0  0  0  0
 18 19  2  0  0  0  0
 19 20  1  0  0  0  0
 19 21  1  0  0  0  0
 21 22  1  0  0  0  0
 21 39  1  0  0  0  0
 22 27  2  0  0  0  0
 22 23  1  0  0  0  0
 23 24  2  0  0  0  0
 23 40  1  0  0  0  0
 24 25  1  0  0  0  0
 24 41  1  0  0  0  0
 25 26  2  0  0  0  0
 25 28  1  0  0  0  0
 26 27  1  0  0  0  0
 26 42  1  0  0  0  0
 27 43  1  0  0  0  0
 28 29  1  0  0  0  0
 28 44  1  0  0  0  0
 28 45  1  0  0  0  0
 29 30  2  0  0  0  0
 29 46  1  0  0  0  0
M  CHG  1  46  -1
M  END
$$$$
ZINC03815309
  -OEChem-08230709403D

 45 48  0     0  0  0  0  0  0999 V2000
    2.0709    8.2772    0.4276 C   0  0  0  0  0  0  0  0  0  0  0  0
    3.3654    7.5914    0.4148 N   0  0  0  0  0  0  0  0  0  0  0  0
    3.4085    6.2243    0.3059 C   0  0  0  0  0  0  0  0  0  0  0  0
    4.6476    5.5480    0.2920 C   0  0  0  0  0  0  0  0  0  0  0  0
    5.8559    6.2749    0.3904 C   0  0  0  0  0  0  0  0  0  0  0  0
    5.8030    7.6388    0.4983 C   0  0  0  0  0  0  0  0  0  0  0  0
    4.5011    8.3093    0.5096 C   0  0  0  0  0  0  0  0  0  0  0  0
    4.4450    9.5224    0.6049 O   0  0  0  0  0  0  0  0  0  0  0  0
    7.0517    8.4293    0.6026 C   0  0  0  0  0  0  0  0  0  0  0  0
    7.5999    8.7114    1.8545 C   0  0  0  0  0  0  0  0  0  0  0  0
    8.7669    9.4447    1.9445 C   0  0  0  0  0  0  0  0  0  0  0  0
    9.3865    9.9078    0.7978 C   0  0  0  0  0  0  0  0  0  0  0  0
    8.8455    9.6361   -0.4460 C   0  0  0  0  0  0  0  0  0  0  0  0
    7.6816    8.8998   -0.5502 C   0  0  0  0  0  0  0  0  0  0  0  0
    7.0036    8.5609   -2.1120 Cl  0  0  0  0  0  0  0  0  0  0  0  0
    6.8202    8.1368    3.2951 Cl  0  0  0  0  0  0  0  0  0  0  0  0
    4.6477    4.1496    0.1787 C   0  0  0  0  0  0  0  0  0  0  0  0
    3.4895    3.5229    0.0897 N   0  0  0  0  0  0  0  0  0  0  0  0
    2.3421    4.1926    0.1060 C   0  0  0  0  0  0  0  0  0  0  0  0
    2.2918    5.5122    0.2062 N   0  0  0  0  0  0  0  0  0  0  0  0
    1.1585    3.4870    0.0093 N   0  0  0  0  0  0  0  0  0  0  0  0
    1.1757    2.0869    0.0133 C   0  0  0  0  0  0  0  0  0  0  0  0
    2.1234    1.4060    0.7660 C   0  0  0  0  0  0  0  0  0  0  0  0
    2.1394    0.0252    0.7698 C   0  0  0  0  0  0  0  0  0  0  0  0
    1.2089   -0.6817    0.0223 C   0  0  0  0  0  0  0  0  0  0  0  0
    0.2619   -0.0022   -0.7299 C   0  0  0  0  0  0  0  0  0  0  0  0
    0.2448    1.3786   -0.7351 C   0  0  0  0  0  0  0  0  0  0  0  0
    1.2253   -2.0414    0.0266 O   0  0  0  0  0  0  0  0  0  0  0  0
    0.2382   -2.7046   -0.7658 C   0  0  0  0  0  0  0  0  0  0  0  0
    1.7162    8.3647    1.4546 H   0  0  0  0  0  0  0  0  0  0  0  0
    2.1823    9.2718   -0.0042 H   0  0  0  0  0  0  0  0  0  0  0  0
    1.3510    7.7055   -0.1580 H   0  0  0  0  0  0  0  0  0  0  0  0
    6.8065    5.7624    0.3799 H   0  0  0  0  0  0  0  0  0  0  0  0
    9.1942    9.6606    2.9126 H   0  0  0  0  0  0  0  0  0  0  0  0
   10.2966   10.4843    0.8739 H   0  0  0  0  0  0  0  0  0  0  0  0
    9.3340   10.0009   -1.3374 H   0  0  0  0  0  0  0  0  0  0  0  0
    5.5758    3.5975    0.1643 H   0  0  0  0  0  0  0  0  0  0  0  0
    0.3154    3.9615   -0.0615 H   0  0  0  0  0  0  0  0  0  0  0  0
    2.8449    1.9561    1.3519 H   0  0  0  0  0  0  0  0  0  0  0  0
    2.8763   -0.5046    1.3552 H   0  0  0  0  0  0  0  0  0  0  0  0
   -0.4620   -0.5533   -1.3119 H   0  0  0  0  0  0  0  0  0  0  0  0
   -0.4923    1.9074   -1.3211 H   0  0  0  0  0  0  0  0  0  0  0  0
   -0.7558   -2.4226   -0.4188 H   0  0  0  0  0  0  0  0  0  0  0  0
    0.3547   -2.4136   -1.8098 H   0  0  0  0  0  0  0  0  0  0  0  0
    0.3629   -3.7835   -0.6733 H   0  0  0  0  0  0  0  0  0  0  0  0
  1  2  1  0  0  0  0
  1 30  1  0  0  0  0
  1 31  1  0  0  0  0
  1 32  1  0  0  0  0
  2  7  1  0  0  0  0
  2  3  1  0  0  0  0
  3 20  2  0  0  0  0
  3  4  1  0  0  0  0
  4  5  1  0  0  0  0
  4 17  2  0  0  0  0
  5  6  2  0  0  0  0
  5 33  1  0  0  0  0
  6  7  1  0  0  0  0
  6  9  1  0  0  0  0
  7  8  2  0  0  0  0
  9 14  2  0  0  0  0
  9 10  1  0  0  0  0
 10 11  2  0  0  0  0
 10 16  1  0  0  0  0
 11 12  1  0  0  0  0
 11 34  1  0  0  0  0
 12 13  2  0  0  0  0
 12 35  1  0  0  0  0
 13 14  1  0  0  0  0
 13 36  1  0  0  0  0
 14 15  1  0  0  0  0
 17 18  1  0  0  0  0
 17 37  1  0  0  0  0
 18 19  2  0  0  0  0
 19 20  1  0  0  0  0
 19 21  1  0  0  0  0
 21 22  1  0  0  0  0
 21 38  1  0  0  0  0
 22 27  2  0  0  0  0
 22 23  1  0  0  0  0
 23 24  2  0  0  0  0
 23 39  1  0  0  0  0
 24 25  1  0  0  0  0
 24 40  1  0  0  0  0
 25 26  2  0  0  0  0
 25 28  1  0  0  0  0
 26 27  1  0  0  0  0
 26 41  1  0  0  0  0
 27 42  1  0  0  0  0
 28 29  1  0  0  0  0
 29 43  1  0  0  0  0
 29 44  1  0  0  0  0
 29 45  1  0  0  0  0
M  END
$$$$
ZINC03815350
  -OEChem-08230709403D

 43 46  0     0  0  0  0  0  0999 V2000
   -4.1948    2.7952    1.5249 C   0  0  0  0  0  0  0  0  0  0  0  0
   -3.6608    3.2387    0.1614 C   0  0  0  0  0  0  0  0  0  0  0  0
   -2.4147    3.9870    0.3449 N   0  0  0  0  0  0  0  0  0  0  0  0
   -1.2157    3.3200    0.3436 C   0  0  0  0  0  0  0  0  0  0  0  0
   -0.0058    4.0261    0.5186 C   0  0  0  0  0  0  0  0  0  0  0  0
   -0.0199    5.4284    0.6969 C   0  0  0  0  0  0  0  0  0  0  0  0
   -1.2211    6.0853    0.6968 C   0  0  0  0  0  0  0  0  0  0  0  0
   -2.4578    5.3227    0.5127 C   0  0  0  0  0  0  0  0  0  0  0  0
   -3.5308    5.8994    0.5108 O   0  0  0  0  0  0  0  0  0  0  0  0
   -1.2695    7.5545    0.8818 C   0  0  0  0  0  0  0  0  0  0  0  0
   -1.3816    8.0962    2.1629 C   0  0  0  0  0  0  0  0  0  0  0  0
   -1.4214    9.4667    2.3288 C   0  0  0  0  0  0  0  0  0  0  0  0
   -1.3609   10.3018    1.2276 C   0  0  0  0  0  0  0  0  0  0  0  0
   -1.2551    9.7711   -0.0454 C   0  0  0  0  0  0  0  0  0  0  0  0
   -1.2090    8.4025   -0.2248 C   0  0  0  0  0  0  0  0  0  0  0  0
   -1.0766    7.7385   -1.8233 Cl  0  0  0  0  0  0  0  0  0  0  0  0
   -1.4649    7.0498    3.5456 Cl  0  0  0  0  0  0  0  0  0  0  0  0
    1.1983    3.3063    0.5105 C   0  0  0  0  0  0  0  0  0  0  0  0
    1.1513    1.9983    0.3395 N   0  0  0  0  0  0  0  0  0  0  0  0
   -0.0062    1.3671    0.1777 C   0  0  0  0  0  0  0  0  0  0  0  0
   -1.1672    2.0036    0.1731 N   0  0  0  0  0  0  0  0  0  0  0  0
    0.0021   -0.0041    0.0020 N   0  0  0  0  0  0  0  0  0  0  0  0
    1.2127   -0.6839   -0.1184 C   0  0  0  0  0  0  0  0  0  0  0  0
    2.3106   -0.0859   -0.7361 C   0  0  0  0  0  0  0  0  0  0  0  0
    3.4921   -0.7909   -0.8314 C   0  0  0  0  0  0  0  0  0  0  0  0
    3.5878   -2.0184   -0.3559 N   0  0  0  0  0  0  0  0  0  0  0  0
    2.5705   -2.6203    0.2311 C   0  0  0  0  0  0  0  0  0  0  0  0
    1.3559   -1.9820    0.3705 C   0  0  0  0  0  0  0  0  0  0  0  0
   -4.3854    3.6723    2.1432 H   0  0  0  0  0  0  0  0  0  0  0  0
   -5.1219    2.2385    1.3884 H   0  0  0  0  0  0  0  0  0  0  0  0
   -3.4576    2.1588    2.0143 H   0  0  0  0  0  0  0  0  0  0  0  0
   -4.3980    3.8751   -0.3281 H   0  0  0  0  0  0  0  0  0  0  0  0
   -3.4702    2.3616   -0.4570 H   0  0  0  0  0  0  0  0  0  0  0  0
    0.9028    5.9732    0.8316 H   0  0  0  0  0  0  0  0  0  0  0  0
   -1.5040    9.8874    3.3201 H   0  0  0  0  0  0  0  0  0  0  0  0
   -1.3970   11.3727    1.3624 H   0  0  0  0  0  0  0  0  0  0  0  0
   -1.2080   10.4286   -0.9010 H   0  0  0  0  0  0  0  0  0  0  0  0
    2.1438    3.8117    0.6409 H   0  0  0  0  0  0  0  0  0  0  0  0
   -0.8347   -0.4930   -0.0374 H   0  0  0  0  0  0  0  0  0  0  0  0
    2.2377    0.9167   -1.1311 H   0  0  0  0  0  0  0  0  0  0  0  0
    4.3487   -0.3343   -1.3049 H   0  0  0  0  0  0  0  0  0  0  0  0
    2.6905   -3.6258    0.6068 H   0  0  0  0  0  0  0  0  0  0  0  0
    0.5272   -2.4805    0.8513 H   0  0  0  0  0  0  0  0  0  0  0  0
  1  2  1  0  0  0  0
  1 29  1  0  0  0  0
  1 30  1  0  0  0  0
  1 31  1  0  0  0  0
  2  3  1  0  0  0  0
  2 32  1  0  0  0  0
  2 33  1  0  0  0  0
  3  8  1  0  0  0  0
  3  4  1  0  0  0  0
  4 21  2  0  0  0  0
  4  5  1  0  0  0  0
  5  6  1  0  0  0  0
  5 18  2  0  0  0  0
  6  7  2  0  0  0  0
  6 34  1  0  0  0  0
  7  8  1  0  0  0  0
  7 10  1  0  0  0  0
  8  9  2  0  0  0  0
 10 15  2  0  0  0  0
 10 11  1  0  0  0  0
 11 12  2  0  0  0  0
 11 17  1  0  0  0  0
 12 13  1  0  0  0  0
 12 35  1  0  0  0  0
 13 14  2  0  0  0  0
 13 36  1  0  0  0  0
 14 15  1  0  0  0  0
 14 37  1  0  0  0  0
 15 16  1  0  0  0  0
 18 19  1  0  0  0  0
 18 38  1  0  0  0  0
 19 20  2  0  0  0  0
 20 21  1  0  0  0  0
 20 22  1  0  0  0  0
 22 23  1  0  0  0  0
 22 39  1  0  0  0  0
 23 28  2  0  0  0  0
 23 24  1  0  0  0  0
 24 25  2  0  0  0  0
 24 40  1  0  0  0  0
 25 26  1  0  0  0  0
 25 41  1  0  0  0  0
 26 27  2  0  0  0  0
 27 28  1  0  0  0  0
 27 42  1  0  0  0  0
 28 43  1  0  0  0  0
M  END
$$$$
ZINC03815354
  -OEChem-08230709403D

 40 43  0     0  0  0  0  0  0999 V2000
   -5.9264    7.2257    0.5000 C   0  0  0  0  0  0  0  0  0  0  0  0
   -4.6527    7.9495    0.4955 N   0  0  0  0  0  0  0  0  0  0  0  0
   -3.4763    7.2531    0.3779 C   0  0  0  0  0  0  0  0  0  0  0  0
   -2.2404    7.9352    0.3714 C   0  0  0  0  0  0  0  0  0  0  0  0
   -2.2047    9.3438    0.4855 C   0  0  0  0  0  0  0  0  0  0  0  0
   -3.3835   10.0302    0.6024 C   0  0  0  0  0  0  0  0  0  0  0  0
   -4.6483    9.2918    0.6063 C   0  0  0  0  0  0  0  0  0  0  0  0
   -5.7017    9.8947    0.7098 O   0  0  0  0  0  0  0  0  0  0  0  0
   -3.3797   11.5068    0.7242 C   0  0  0  0  0  0  0  0  0  0  0  0
   -3.3221   12.1058    1.9832 C   0  0  0  0  0  0  0  0  0  0  0  0
   -3.3150   13.4828    2.0897 C   0  0  0  0  0  0  0  0  0  0  0  0
   -3.3740   14.2678    0.9522 C   0  0  0  0  0  0  0  0  0  0  0  0
   -3.4362   13.6803   -0.2985 C   0  0  0  0  0  0  0  0  0  0  0  0
   -3.4396   12.3044   -0.4191 C   0  0  0  0  0  0  0  0  0  0  0  0
   -3.5188   11.5691   -1.9897 Cl  0  0  0  0  0  0  0  0  0  0  0  0
   -3.2539   11.1224    3.4122 Cl  0  0  0  0  0  0  0  0  0  0  0  0
   -1.0608    7.1856    0.2498 C   0  0  0  0  0  0  0  0  0  0  0  0
   -1.1539    5.8727    0.1514 N   0  0  0  0  0  0  0  0  0  0  0  0
   -2.3352    5.2648    0.1562 C   0  0  0  0  0  0  0  0  0  0  0  0
   -3.4750    5.9293    0.2688 N   0  0  0  0  0  0  0  0  0  0  0  0
   -2.3756    3.8881    0.0453 N   0  0  0  0  0  0  0  0  0  0  0  0
   -1.1869    3.1518    0.0415 C   0  0  0  0  0  0  0  0  0  0  0  0
   -0.0915    3.5739    0.7916 C   0  0  0  0  0  0  0  0  0  0  0  0
    1.0655    2.8137    0.7515 C   0  0  0  0  0  0  0  0  0  0  0  0
    1.0920    1.6641   -0.0164 C   0  0  0  0  0  0  0  0  0  0  0  0
    0.0360    1.2886   -0.7111 N   0  0  0  0  0  0  0  0  0  0  0  0
   -1.0828    1.9855   -0.7054 C   0  0  0  0  0  0  0  0  0  0  0  0
   -6.1903    6.9613    1.5240 H   0  0  0  0  0  0  0  0  0  0  0  0
   -6.7056    7.8590    0.0759 H   0  0  0  0  0  0  0  0  0  0  0  0
   -5.8309    6.3184   -0.0964 H   0  0  0  0  0  0  0  0  0  0  0  0
   -1.2619    9.8705    0.4803 H   0  0  0  0  0  0  0  0  0  0  0  0
   -3.2666   13.9478    3.0633 H   0  0  0  0  0  0  0  0  0  0  0  0
   -3.3720   15.3441    1.0411 H   0  0  0  0  0  0  0  0  0  0  0  0
   -3.4825   14.2988   -1.1827 H   0  0  0  0  0  0  0  0  0  0  0  0
   -0.0966    7.6721    0.2413 H   0  0  0  0  0  0  0  0  0  0  0  0
   -3.2286    3.4324   -0.0299 H   0  0  0  0  0  0  0  0  0  0  0  0
   -0.1419    4.4740    1.3863 H   0  0  0  0  0  0  0  0  0  0  0  0
    1.9356    3.1130    1.3170 H   0  0  0  0  0  0  0  0  0  0  0  0
    1.9904    1.0654   -0.0479 H   0  0  0  0  0  0  0  0  0  0  0  0
   -1.9271    1.6460   -1.2870 H   0  0  0  0  0  0  0  0  0  0  0  0
  1  2  1  0  0  0  0
  1 28  1  0  0  0  0
  1 29  1  0  0  0  0
  1 30  1  0  0  0  0
  2  7  1  0  0  0  0
  2  3  1  0  0  0  0
  3 20  2  0  0  0  0
  3  4  1  0  0  0  0
  4  5  1  0  0  0  0
  4 17  2  0  0  0  0
  5  6  2  0  0  0  0
  5 31  1  0  0  0  0
  6  7  1  0  0  0  0
  6  9  1  0  0  0  0
  7  8  2  0  0  0  0
  9 14  2  0  0  0  0
  9 10  1  0  0  0  0
 10 11  2  0  0  0  0
 10 16  1  0  0  0  0
 11 12  1  0  0  0  0
 11 32  1  0  0  0  0
 12 13  2  0  0  0  0
 12 33  1  0  0  0  0
 13 14  1  0  0  0  0
 13 34  1  0  0  0  0
 14 15  1  0  0  0  0
 17 18  1  0  0  0  0
 17 35  1  0  0  0  0
 18 19  2  0  0  0  0
 19 20  1  0  0  0  0
 19 21  1  0  0  0  0
 21 22  1  0  0  0  0
 21 36  1  0  0  0  0
 22 27  2  0  0  0  0
 22 23  1  0  0  0  0
 23 24  2  0  0  0  0
 23 37  1  0  0  0  0
 24 25  1  0  0  0  0
 24 38  1  0  0  0  0
 25 26  2  0  0  0  0
 25 39  1  0  0  0  0
 26 27  1  0  0  0  0
 27 40  1  0  0  0  0
M  END
$$$$
ZINC03815368
  -OEChem-08230709403D

 51 53  0     0  0  0  0  0  0999 V2000
    4.7452    4.1433    2.4915 C   0  0  0  0  0  0  0  0  0  0  0  0
    5.3689    4.5451    1.1798 C   0  0  0  0  0  0  0  0  0  0  0  0
    6.5375    5.2792    1.1660 C   0  0  0  0  0  0  0  0  0  0  0  0
    7.1078    5.6539   -0.0372 C   0  0  0  0  0  0  0  0  0  0  0  0
    6.5144    5.2909   -1.2329 C   0  0  0  0  0  0  0  0  0  0  0  0
    5.3491    4.5516   -1.2314 C   0  0  0  0  0  0  0  0  0  0  0  0
    4.7698    4.1711   -0.0220 C   0  0  0  0  0  0  0  0  0  0  0  0
    3.5179    3.3767   -0.0138 C   0  0  0  0  0  0  0  0  0  0  0  0
    3.5691    1.9916   -0.0217 C   0  0  0  0  0  0  0  0  0  0  0  0
    2.3540    1.2879   -0.0135 C   0  0  0  0  0  0  0  0  0  0  0  0
    2.3093   -0.1169   -0.0206 C   0  0  0  0  0  0  0  0  0  0  0  0
    1.1319   -0.7082   -0.0125 N   0  0  0  0  0  0  0  0  0  0  0  0
    0.0021   -0.0041    0.0020 C   0  0  0  0  0  0  0  0  0  0  0  0
   -0.0158    1.3152    0.0093 N   0  0  0  0  0  0  0  0  0  0  0  0
    1.1302    2.0077    0.0020 C   0  0  0  0  0  0  0  0  0  0  0  0
    1.1376    3.3417    0.0087 N   0  0  0  0  0  0  0  0  0  0  0  0
    2.2646    4.0243    0.0012 C   0  0  0  0  0  0  0  0  0  0  0  0
    2.2178    5.4108    0.0086 N   0  0  0  0  0  0  0  0  0  0  0  0
    1.0286    6.0449    0.0233 C   0  0  0  0  0  0  0  0  0  0  0  0
   -0.0031    5.4018    0.0301 O   0  0  0  0  0  0  0  0  0  0  0  0
    0.9831    7.3918    0.0305 N   0  0  0  0  0  0  0  0  0  0  0  0
   -0.3096    8.0810    0.0465 C   0  0  0  0  0  0  0  0  0  0  0  0
   -1.0868    7.6782    1.3014 C   0  0  0  0  0  0  0  0  0  0  0  0
   -0.0809    9.5938    0.0519 C   0  0  0  0  0  0  0  0  0  0  0  0
   -1.1110    7.6908   -1.1969 C   0  0  0  0  0  0  0  0  0  0  0  0
   -1.2015   -0.6829    0.0094 N   0  0  0  0  0  0  0  0  0  0  0  0
    4.7044    4.1560   -2.5348 C   0  0  0  0  0  0  0  0  0  0  0  0
    5.1451    3.1785    2.8036 H   0  0  0  0  0  0  0  0  0  0  0  0
    4.9749    4.8937    3.2480 H   0  0  0  0  0  0  0  0  0  0  0  0
    3.6645    4.0671    2.3717 H   0  0  0  0  0  0  0  0  0  0  0  0
    7.0053    5.5651    2.0965 H   0  0  0  0  0  0  0  0  0  0  0  0
    8.0197    6.2325   -0.0432 H   0  0  0  0  0  0  0  0  0  0  0  0
    6.9641    5.5863   -2.1693 H   0  0  0  0  0  0  0  0  0  0  0  0
    4.5145    1.4696   -0.0332 H   0  0  0  0  0  0  0  0  0  0  0  0
    3.2193   -0.6983   -0.0320 H   0  0  0  0  0  0  0  0  0  0  0  0
    3.0410    5.9239    0.0032 H   0  0  0  0  0  0  0  0  0  0  0  0
    1.8063    7.9050    0.0251 H   0  0  0  0  0  0  0  0  0  0  0  0
   -0.5158    7.9563    2.1873 H   0  0  0  0  0  0  0  0  0  0  0  0
   -2.0485    8.1910    1.3133 H   0  0  0  0  0  0  0  0  0  0  0  0
   -1.2496    6.6005    1.2976 H   0  0  0  0  0  0  0  0  0  0  0  0
    0.4728    9.8808   -0.8421 H   0  0  0  0  0  0  0  0  0  0  0  0
   -1.0427   10.1066    0.0638 H   0  0  0  0  0  0  0  0  0  0  0  0
    0.4900    9.8719    0.9378 H   0  0  0  0  0  0  0  0  0  0  0  0
   -1.2739    6.6130   -1.2008 H   0  0  0  0  0  0  0  0  0  0  0  0
   -2.0728    8.2036   -1.1850 H   0  0  0  0  0  0  0  0  0  0  0  0
   -0.5573    7.9777   -2.0909 H   0  0  0  0  0  0  0  0  0  0  0  0
   -2.0366   -0.1895    0.0197 H   0  0  0  0  0  0  0  0  0  0  0  0
   -1.2113   -1.6529    0.0042 H   0  0  0  0  0  0  0  0  0  0  0  0
    3.9981    4.9282   -2.8399 H   0  0  0  0  0  0  0  0  0  0  0  0
    5.4720    4.0428   -3.3003 H   0  0  0  0  0  0  0  0  0  0  0  0
    4.1766    3.2109   -2.4070 H   0  0  0  0  0  0  0  0  0  0  0  0
  1  2  1  0  0  0  0
  1 28  1  0  0  0  0
  1 29  1  0  0  0  0
  1 30  1  0  0  0  0
  2  7  2  0  0  0  0
  2  3  1  0  0  0  0
  3  4  2  0  0  0  0
  3 31  1  0  0  0  0
  4  5  1  0  0  0  0
  4 32  1  0  0  0  0
  5  6  2  0  0  0  0
  5 33  1  0  0  0  0
  6  7  1  0  0  0  0
  6 27  1  0  0  0  0
  7  8  1  0  0  0  0
  8 17  2  0  0  0  0
  8  9  1  0  0  0  0
  9 10  2  0  0  0  0
  9 34  1  0  0  0  0
 10 15  1  0  0  0  0
 10 11  1  0  0  0  0
 11 12  2  0  0  0  0
 11 35  1  0  0  0  0
 12 13  1  0  0  0  0
 13 14  2  0  0  0  0
 13 26  1  0  0  0  0
 14 15  1  0  0  0  0
 15 16  2  0  0  0  0
 16 17  1  0  0  0  0
 17 18  1  0  0  0  0
 18 19  1  0  0  0  0
 18 36  1  0  0  0  0
 19 20  2  0  0  0  0
 19 21  1  0  0  0  0
 21 22  1  0  0  0  0
 21 37  1  0  0  0  0
 22 23  1  0  0  0  0
 22 24  1  0  0  0  0
 22 25  1  0  0  0  0
 23 38  1  0  0  0  0
 23 39  1  0  0  0  0
 23 40  1  0  0  0  0
 24 41  1  0  0  0  0
 24 42  1  0  0  0  0
 24 43  1  0  0  0  0
 25 44  1  0  0  0  0
 25 45  1  0  0  0  0
 25 46  1  0  0  0  0
 26 47  1  0  0  0  0
 26 48  1  0  0  0  0
 27 49  1  0  0  0  0
 27 50  1  0  0  0  0
 27 51  1  0  0  0  0
M  END
$$$$
ZINC03815379
  -OEChem-08230709403D

 75 79  0     0  0  0  0  0  0999 V2000
   17.6153   -0.7836   -1.7674 C   0  0  0  0  0  0  0  0  0  0  0  0
   16.6203   -2.6587   -0.6017 C   0  0  0  0  0  0  0  0  0  0  0  0
   15.5490   -3.7472   -0.7019 C   0  0  0  0  0  0  0  0  0  0  0  0
   14.1571   -2.2571   -2.0061 C   0  0  0  0  0  0  0  0  0  0  0  0
   15.2284   -1.1687   -1.9060 C   0  0  0  0  0  0  0  0  0  0  0  0
   13.1620   -4.1322   -0.8404 C   0  0  0  0  0  0  0  0  0  0  0  0
   11.8009   -3.4458   -0.7102 C   0  0  0  0  0  0  0  0  0  0  0  0
   10.6933   -4.5011   -0.7338 C   0  0  0  0  0  0  0  0  0  0  0  0
    9.3899   -3.8439   -0.6091 N   0  0  0  0  0  0  0  0  0  0  0  0
    8.2326   -4.5993   -0.6058 C   0  0  0  0  0  0  0  0  0  0  0  0
    8.3336   -5.9221   -0.7171 N   0  0  0  0  0  0  0  0  0  0  0  0
    7.2657   -6.6941   -0.7205 C   0  0  0  0  0  0  0  0  0  0  0  0
    6.0019   -6.0908   -0.6024 C   0  0  0  0  0  0  0  0  0  0  0  0
    4.8170   -6.8450   -0.5980 C   0  0  0  0  0  0  0  0  0  0  0  0
    3.6151   -6.1659   -0.4776 C   0  0  0  0  0  0  0  0  0  0  0  0
    3.6214   -4.7591   -0.3651 C   0  0  0  0  0  0  0  0  0  0  0  0
    4.7461   -4.0733   -0.3767 N   0  0  0  0  0  0  0  0  0  0  0  0
    5.9306   -4.6779   -0.4851 C   0  0  0  0  0  0  0  0  0  0  0  0
    7.0732   -3.9798   -0.4922 N   0  0  0  0  0  0  0  0  0  0  0  0
    2.4159   -4.0829   -0.2453 N   0  0  0  0  0  0  0  0  0  0  0  0
    2.4047   -2.7396   -0.1368 C   0  0  0  0  0  0  0  0  0  0  0  0
    3.4509   -2.1204   -0.1441 O   0  0  0  0  0  0  0  0  0  0  0  0
    1.2336   -2.0827   -0.0204 N   0  0  0  0  0  0  0  0  0  0  0  0
    1.2132   -0.6815   -0.0198 C   0  0  0  0  0  0  0  0  0  0  0  0
    2.1374    0.0268   -0.7760 C   0  0  0  0  0  0  0  0  0  0  0  0
    2.1165    1.4076   -0.7753 C   0  0  0  0  0  0  0  0  0  0  0  0
    1.1724    2.0869   -0.0194 C   0  0  0  0  0  0  0  0  0  0  0  0
    0.2487    1.3798    0.7363 C   0  0  0  0  0  0  0  0  0  0  0  0
    0.2686   -0.0010    0.7366 C   0  0  0  0  0  0  0  0  0  0  0  0
    1.1526    3.4465   -0.0188 O   0  0  0  0  0  0  0  0  0  0  0  0
    0.1534    4.0805    0.7823 C   0  0  0  0  0  0  0  0  0  0  0  0
    2.3334   -6.9109   -0.4667 C   0  0  0  0  0  0  0  0  0  0  0  0
    1.6588   -7.1615   -1.6616 C   0  0  0  0  0  0  0  0  0  0  0  0
    0.4677   -7.8608   -1.6452 C   0  0  0  0  0  0  0  0  0  0  0  0
   -0.0618   -8.3027   -0.4463 C   0  0  0  0  0  0  0  0  0  0  0  0
    0.5994   -8.0524    0.7426 C   0  0  0  0  0  0  0  0  0  0  0  0
    1.7942   -7.3592    0.7391 C   0  0  0  0  0  0  0  0  0  0  0  0
    2.6226   -7.0462    2.2322 Cl  0  0  0  0  0  0  0  0  0  0  0  0
    2.3181   -6.6015   -3.1667 Cl  0  0  0  0  0  0  0  0  0  0  0  0
   18.5870   -1.2771   -1.7491 H   0  0  0  0  0  0  0  0  0  0  0  0
   17.5415   -0.1595   -2.6580 H   0  0  0  0  0  0  0  0  0  0  0  0
   17.5065   -0.1624   -0.8784 H   0  0  0  0  0  0  0  0  0  0  0  0
   16.4476   -2.0597    0.2924 H   0  0  0  0  0  0  0  0  0  0  0  0
   17.6052   -3.1221   -0.5444 H   0  0  0  0  0  0  0  0  0  0  0  0
   15.5788   -4.3701    0.1920 H   0  0  0  0  0  0  0  0  0  0  0  0
   15.7375   -4.3631   -1.5812 H   0  0  0  0  0  0  0  0  0  0  0  0
   14.3297   -2.8561   -2.9003 H   0  0  0  0  0  0  0  0  0  0  0  0
   13.1721   -1.7938   -2.0631 H   0  0  0  0  0  0  0  0  0  0  0  0
   15.0399   -0.5527   -1.0266 H   0  0  0  0  0  0  0  0  0  0  0  0
   15.1987   -0.5454   -2.7997 H   0  0  0  0  0  0  0  0  0  0  0  0
   13.3013   -4.8236   -0.0094 H   0  0  0  0  0  0  0  0  0  0  0  0
   13.2035   -4.6815   -1.7810 H   0  0  0  0  0  0  0  0  0  0  0  0
   11.6616   -2.7544   -1.5413 H   0  0  0  0  0  0  0  0  0  0  0  0
   11.7594   -2.8965    0.2303 H   0  0  0  0  0  0  0  0  0  0  0  0
   10.8325   -5.1925    0.0973 H   0  0  0  0  0  0  0  0  0  0  0  0
   10.7347   -5.0504   -1.6743 H   0  0  0  0  0  0  0  0  0  0  0  0
    9.3392   -2.8785   -0.5289 H   0  0  0  0  0  0  0  0  0  0  0  0
    7.3596   -7.7661   -0.8117 H   0  0  0  0  0  0  0  0  0  0  0  0
    4.8419   -7.9212   -0.6854 H   0  0  0  0  0  0  0  0  0  0  0  0
    1.5812   -4.5770   -0.2395 H   0  0  0  0  0  0  0  0  0  0  0  0
    0.4049   -2.5799    0.0630 H   0  0  0  0  0  0  0  0  0  0  0  0
    2.8727   -0.5019   -1.3643 H   0  0  0  0  0  0  0  0  0  0  0  0
    2.8381    1.9588   -1.3600 H   0  0  0  0  0  0  0  0  0  0  0  0
   -0.4860    1.9093    1.3247 H   0  0  0  0  0  0  0  0  0  0  0  0
   -0.4508   -0.5514    1.3247 H   0  0  0  0  0  0  0  0  0  0  0  0
    0.2487    5.1626    0.6929 H   0  0  0  0  0  0  0  0  0  0  0  0
   -0.8350    3.7734    0.4406 H   0  0  0  0  0  0  0  0  0  0  0  0
    0.2844    3.7890    1.8244 H   0  0  0  0  0  0  0  0  0  0  0  0
   -0.0532   -8.0596   -2.5702 H   0  0  0  0  0  0  0  0  0  0  0  0
   -0.9957   -8.8451   -0.4383 H   0  0  0  0  0  0  0  0  0  0  0  0
    0.1808   -8.4001    1.6755 H   0  0  0  0  0  0  0  0  0  0  0  0
   16.5551   -1.8132   -1.8124 N   0  3  0  0  0  0  0  0  0  0  0  0
   16.6985   -2.4037   -2.6401 H   0  0  0  0  0  0  0  0  0  0  0  0
   14.2222   -3.1026   -0.7954 N   0  3  0  0  0  0  0  0  0  0  0  0
   14.0789   -2.5122    0.0323 H   0  0  0  0  0  0  0  0  0  0  0  0
  1 40  1  0  0  0  0
  1 41  1  0  0  0  0
  1 42  1  0  0  0  0
  1 72  1  0  0  0  0
  2  3  1  0  0  0  0
  2 43  1  0  0  0  0
  2 44  1  0  0  0  0
  2 72  1  0  0  0  0
  3 45  1  0  0  0  0
  3 46  1  0  0  0  0
  3 74  1  0  0  0  0
  4  5  1  0  0  0  0
  4 47  1  0  0  0  0
  4 48  1  0  0  0  0
  4 74  1  0  0  0  0
  5 49  1  0  0  0  0
  5 50  1  0  0  0  0
  5 72  1  0  0  0  0
  6  7  1  0  0  0  0
  6 51  1  0  0  0  0
  6 52  1  0  0  0  0
  6 74  1  0  0  0  0
  7  8  1  0  0  0  0
  7 53  1  0  0  0  0
  7 54  1  0  0  0  0
  8  9  1  0  0  0  0
  8 55  1  0  0  0  0
  8 56  1  0  0  0  0
  9 10  1  0  0  0  0
  9 57  1  0  0  0  0
 10 19  2  0  0  0  0
 10 11  1  0  0  0  0
 11 12  2  0  0  0  0
 12 13  1  0  0  0  0
 12 58  1  0  0  0  0
 13 18  2  0  0  0  0
 13 14  1  0  0  0  0
 14 15  2  0  0  0  0
 14 59  1  0  0  0  0
 15 16  1  0  0  0  0
 15 32  1  0  0  0  0
 16 17  2  0  0  0  0
 16 20  1  0  0  0  0
 17 18  1  0  0  0  0
 18 19  1  0  0  0  0
 20 21  1  0  0  0  0
 20 60  1  0  0  0  0
 21 22  2  0  0  0  0
 21 23  1  0  0  0  0
 23 24  1  0  0  0  0
 23 61  1  0  0  0  0
 24 29  2  0  0  0  0
 24 25  1  0  0  0  0
 25 26  2  0  0  0  0
 25 62  1  0  0  0  0
 26 27  1  0  0  0  0
 26 63  1  0  0  0  0
 27 28  2  0  0  0  0
 27 30  1  0  0  0  0
 28 29  1  0  0  0  0
 28 64  1  0  0  0  0
 29 65  1  0  0  0  0
 30 31  1  0  0  0  0
 31 66  1  0  0  0  0
 31 67  1  0  0  0  0
 31 68  1  0  0  0  0
 32 37  2  0  0  0  0
 32 33  1  0  0  0  0
 33 34  2  0  0  0  0
 33 39  1  0  0  0  0
 34 35  1  0  0  0  0
 34 69  1  0  0  0  0
 35 36  2  0  0  0  0
 35 70  1  0  0  0  0
 36 37  1  0  0  0  0
 36 71  1  0  0  0  0
 37 38  1  0  0  0  0
 72 73  1  0  0  0  0
 74 75  1  0  0  0  0
M  CHG  2  72   1  74   1
M  END
$$$$
ZINC03815405
  -OEChem-08230709403D

 77 81  0     0  0  0  0  0  0999 V2000
  -14.8245    1.7607   -9.8470 C   0  0  0  0  0  0  0  0  0  0  0  0
  -12.7907    2.2967  -11.0476 C   0  0  0  0  0  0  0  0  0  0  0  0
  -11.3785    1.8007  -11.3673 C   0  0  0  0  0  0  0  0  0  0  0  0
  -11.2569    0.7451   -9.1926 C   0  0  0  0  0  0  0  0  0  0  0  0
  -12.6690    1.2410   -8.8728 C   0  0  0  0  0  0  0  0  0  0  0  0
   -9.2231    1.2811  -10.3931 C   0  0  0  0  0  0  0  0  0  0  0  0
   -8.3939    1.4096   -9.1137 C   0  0  0  0  0  0  0  0  0  0  0  0
   -6.9499    0.9911   -9.3976 C   0  0  0  0  0  0  0  0  0  0  0  0
   -6.1560    1.1141   -8.1726 N   0  0  0  0  0  0  0  0  0  0  0  0
   -4.8127    0.7894   -8.1842 C   0  0  0  0  0  0  0  0  0  0  0  0
   -4.2678    0.3681   -9.3234 N   0  0  0  0  0  0  0  0  0  0  0  0
   -2.9927    0.0437   -9.3956 C   0  0  0  0  0  0  0  0  0  0  0  0
   -2.2066    0.1520   -8.2356 C   0  0  0  0  0  0  0  0  0  0  0  0
   -0.8406   -0.1747   -8.2316 C   0  0  0  0  0  0  0  0  0  0  0  0
   -0.1435   -0.0380   -7.0419 C   0  0  0  0  0  0  0  0  0  0  0  0
   -0.8194    0.4184   -5.8902 C   0  0  0  0  0  0  0  0  0  0  0  0
   -2.1029    0.7136   -5.9178 N   0  0  0  0  0  0  0  0  0  0  0  0
   -2.8197    0.6050   -7.0381 C   0  0  0  0  0  0  0  0  0  0  0  0
   -4.1231    0.9102   -7.0658 N   0  0  0  0  0  0  0  0  0  0  0  0
   -0.1177    0.5539   -4.7009 N   0  0  0  0  0  0  0  0  0  0  0  0
   -0.7486    0.9886   -3.5921 C   0  0  0  0  0  0  0  0  0  0  0  0
   -1.9324    1.2619   -3.6339 O   0  0  0  0  0  0  0  0  0  0  0  0
   -0.0670    1.1202   -2.4368 N   0  0  0  0  0  0  0  0  0  0  0  0
   -0.7527    1.5927   -1.2315 C   0  0  0  0  0  0  0  0  0  0  0  0
   -0.0127    1.0858    0.0080 C   0  0  0  0  0  0  0  0  0  0  0  0
   -0.7288    1.5792    1.2668 C   0  0  0  0  0  0  0  0  0  0  0  0
   -0.7496    3.1091    1.2752 C   0  0  0  0  0  0  0  0  0  0  0  0
   -1.4896    3.6159    0.0357 C   0  0  0  0  0  0  0  0  0  0  0  0
   -0.7734    3.1225   -1.2231 C   0  0  0  0  0  0  0  0  0  0  0  0
    1.3006   -0.3680   -6.9795 C   0  0  0  0  0  0  0  0  0  0  0  0
    1.7101   -1.6609   -6.6533 C   0  0  0  0  0  0  0  0  0  0  0  0
    3.0570   -1.9630   -6.6011 C   0  0  0  0  0  0  0  0  0  0  0  0
    3.9989   -0.9844   -6.8620 C   0  0  0  0  0  0  0  0  0  0  0  0
    3.5994    0.3009   -7.1809 C   0  0  0  0  0  0  0  0  0  0  0  0
    2.2555    0.6146   -7.2411 C   0  0  0  0  0  0  0  0  0  0  0  0
    1.7560    2.2284   -7.6410 Cl  0  0  0  0  0  0  0  0  0  0  0  0
    0.5295   -2.8889   -6.3190 Cl  0  0  0  0  0  0  0  0  0  0  0  0
  -15.3886    1.7750  -10.7795 H   0  0  0  0  0  0  0  0  0  0  0  0
  -15.2799    1.0497   -9.1577 H   0  0  0  0  0  0  0  0  0  0  0  0
  -14.8336    2.7554   -9.4015 H   0  0  0  0  0  0  0  0  0  0  0  0
  -12.7342    3.2831  -10.5872 H   0  0  0  0  0  0  0  0  0  0  0  0
  -13.3718    2.3576  -11.9678 H   0  0  0  0  0  0  0  0  0  0  0  0
  -10.8860    2.5099  -12.0327 H   0  0  0  0  0  0  0  0  0  0  0  0
  -11.4364    0.8263  -11.8524 H   0  0  0  0  0  0  0  0  0  0  0  0
  -11.3134   -0.2413   -9.6529 H   0  0  0  0  0  0  0  0  0  0  0  0
  -10.6757    0.6846   -8.2724 H   0  0  0  0  0  0  0  0  0  0  0  0
  -12.6112    2.2154   -8.3878 H   0  0  0  0  0  0  0  0  0  0  0  0
  -13.1617    0.5322   -8.2073 H   0  0  0  0  0  0  0  0  0  0  0  0
   -8.8029    1.9262  -11.1648 H   0  0  0  0  0  0  0  0  0  0  0  0
   -9.2053    0.2463  -10.7353 H   0  0  0  0  0  0  0  0  0  0  0  0
   -8.8141    0.7645   -8.3421 H   0  0  0  0  0  0  0  0  0  0  0  0
   -8.4118    2.4443   -8.7716 H   0  0  0  0  0  0  0  0  0  0  0  0
   -6.5297    1.6362  -10.1693 H   0  0  0  0  0  0  0  0  0  0  0  0
   -6.9321   -0.0437   -9.7398 H   0  0  0  0  0  0  0  0  0  0  0  0
   -6.5731    1.4235   -7.3533 H   0  0  0  0  0  0  0  0  0  0  0  0
   -2.5613   -0.2969  -10.3253 H   0  0  0  0  0  0  0  0  0  0  0  0
   -0.3486   -0.5215   -9.1284 H   0  0  0  0  0  0  0  0  0  0  0  0
    0.8268    0.3358   -4.6676 H   0  0  0  0  0  0  0  0  0  0  0  0
    0.8776    0.9021   -2.4035 H   0  0  0  0  0  0  0  0  0  0  0  0
   -1.7753    1.2154   -1.2238 H   0  0  0  0  0  0  0  0  0  0  0  0
    0.0021   -0.0041    0.0020 H   0  0  0  0  0  0  0  0  0  0  0  0
    1.0099    1.4631    0.0003 H   0  0  0  0  0  0  0  0  0  0  0  0
   -1.7514    1.2020    1.2746 H   0  0  0  0  0  0  0  0  0  0  0  0
   -0.2017    1.2182    2.1499 H   0  0  0  0  0  0  0  0  0  0  0  0
    0.2730    3.4864    1.2675 H   0  0  0  0  0  0  0  0  0  0  0  0
   -1.2598    3.4606    2.1720 H   0  0  0  0  0  0  0  0  0  0  0  0
   -1.5044    4.7058    0.0417 H   0  0  0  0  0  0  0  0  0  0  0  0
   -2.5122    3.2386    0.0434 H   0  0  0  0  0  0  0  0  0  0  0  0
    0.2491    3.4998   -1.2308 H   0  0  0  0  0  0  0  0  0  0  0  0
   -1.3006    3.4836   -2.1062 H   0  0  0  0  0  0  0  0  0  0  0  0
    3.3753   -2.9647   -6.3526 H   0  0  0  0  0  0  0  0  0  0  0  0
    5.0508   -1.2247   -6.8162 H   0  0  0  0  0  0  0  0  0  0  0  0
    4.3397    1.0608   -7.3829 H   0  0  0  0  0  0  0  0  0  0  0  0
  -13.4379    1.3338  -10.1319 N   0  3  0  0  0  0  0  0  0  0  0  0
  -13.4585    0.4099  -10.5793 H   0  0  0  0  0  0  0  0  0  0  0  0
  -10.6097    1.7081  -10.1085 N   0  3  0  0  0  0  0  0  0  0  0  0
  -10.5891    2.6321   -9.6612 H   0  0  0  0  0  0  0  0  0  0  0  0
  1 38  1  0  0  0  0
  1 39  1  0  0  0  0
  1 40  1  0  0  0  0
  1 74  1  0  0  0  0
  2  3  1  0  0  0  0
  2 41  1  0  0  0  0
  2 42  1  0  0  0  0
  2 74  1  0  0  0  0
  3 43  1  0  0  0  0
  3 44  1  0  0  0  0
  3 76  1  0  0  0  0
  4  5  1  0  0  0  0
  4 45  1  0  0  0  0
  4 46  1  0  0  0  0
  4 76  1  0  0  0  0
  5 47  1  0  0  0  0
  5 48  1  0  0  0  0
  5 74  1  0  0  0  0
  6  7  1  0  0  0  0
  6 49  1  0  0  0  0
  6 50  1  0  0  0  0
  6 76  1  0  0  0  0
  7  8  1  0  0  0  0
  7 51  1  0  0  0  0
  7 52  1  0  0  0  0
  8  9  1  0  0  0  0
  8 53  1  0  0  0  0
  8 54  1  0  0  0  0
  9 10  1  0  0  0  0
  9 55  1  0  0  0  0
 10 19  2  0  0  0  0
 10 11  1  0  0  0  0
 11 12  2  0  0  0  0
 12 13  1  0  0  0  0
 12 56  1  0  0  0  0
 13 18  2  0  0  0  0
 13 14  1  0  0  0  0
 14 15  2  0  0  0  0
 14 57  1  0  0  0  0
 15 16  1  0  0  0  0
 15 30  1  0  0  0  0
 16 17  2  0  0  0  0
 16 20  1  0  0  0  0
 17 18  1  0  0  0  0
 18 19  1  0  0  0  0
 20 21  1  0  0  0  0
 20 58  1  0  0  0  0
 21 22  2  0  0  0  0
 21 23  1  0  0  0  0
 23 24  1  0  0  0  0
 23 59  1  0  0  0  0
 24 29  1  0  0  0  0
 24 25  1  0  0  0  0
 24 60  1  0  0  0  0
 25 26  1  0  0  0  0
 25 61  1  0  0  0  0
 25 62  1  0  0  0  0
 26 27  1  0  0  0  0
 26 63  1  0  0  0  0
 26 64  1  0  0  0  0
 27 28  1  0  0  0  0
 27 65  1  0  0  0  0
 27 66  1  0  0  0  0
 28 29  1  0  0  0  0
 28 67  1  0  0  0  0
 28 68  1  0  0  0  0
 29 69  1  0  0  0  0
 29 70  1  0  0  0  0
 30 35  2  0  0  0  0
 30 31  1  0  0  0  0
 31 32  2  0  0  0  0
 31 37  1  0  0  0  0
 32 33  1  0  0  0  0
 32 71  1  0  0  0  0
 33 34  2  0  0  0  0
 33 72  1  0  0  0  0
 34 35  1  0  0  0  0
 34 73  1  0  0  0  0
 35 36  1  0  0  0  0
 74 75  1  0  0  0  0
 76 77  1  0  0  0  0
M  CHG  2  74   1  76   1
M  END
$$$$
ZINC03815480
  -OEChem-08230709403D

 59 63  0     0  0  0  0  0  0999 V2000
   -5.0668    5.9046  -10.2548 C   0  0  0  0  0  0  0  0  0  0  0  0
   -4.9239    4.4536  -10.1124 N   0  0  0  0  0  0  0  0  0  0  0  0
   -4.4245    3.9316   -8.9459 C   0  0  0  0  0  0  0  0  0  0  0  0
   -4.2808    2.5355   -8.7923 C   0  0  0  0  0  0  0  0  0  0  0  0
   -4.6514    1.6628   -9.8407 C   0  0  0  0  0  0  0  0  0  0  0  0
   -5.1484    2.1928  -11.0012 C   0  0  0  0  0  0  0  0  0  0  0  0
   -5.2845    3.6454  -11.1278 C   0  0  0  0  0  0  0  0  0  0  0  0
   -5.7265    4.1252  -12.1566 O   0  0  0  0  0  0  0  0  0  0  0  0
   -5.5448    1.3047  -12.1188 C   0  0  0  0  0  0  0  0  0  0  0  0
   -4.6157    0.9550  -13.0994 C   0  0  0  0  0  0  0  0  0  0  0  0
   -4.9904    0.1227  -14.1360 C   0  0  0  0  0  0  0  0  0  0  0  0
   -6.2863   -0.3557  -14.2090 C   0  0  0  0  0  0  0  0  0  0  0  0
   -7.2136   -0.0086  -13.2431 C   0  0  0  0  0  0  0  0  0  0  0  0
   -6.8506    0.8190  -12.1986 C   0  0  0  0  0  0  0  0  0  0  0  0
   -8.0162    1.2544  -10.9880 Cl  0  0  0  0  0  0  0  0  0  0  0  0
   -2.9907    1.5596  -13.0133 Cl  0  0  0  0  0  0  0  0  0  0  0  0
   -3.7662    2.0428   -7.5837 C   0  0  0  0  0  0  0  0  0  0  0  0
   -3.4373    2.9040   -6.6393 N   0  0  0  0  0  0  0  0  0  0  0  0
   -3.5862    4.2120   -6.8190 C   0  0  0  0  0  0  0  0  0  0  0  0
   -4.0724    4.7237   -7.9396 N   0  0  0  0  0  0  0  0  0  0  0  0
   -3.2261    5.0692   -5.7975 N   0  0  0  0  0  0  0  0  0  0  0  0
   -2.8255    4.5530   -4.5586 C   0  0  0  0  0  0  0  0  0  0  0  0
   -1.8587    5.2128   -3.8113 C   0  0  0  0  0  0  0  0  0  0  0  0
   -1.4635    4.7037   -2.5902 C   0  0  0  0  0  0  0  0  0  0  0  0
   -2.0333    3.5322   -2.1091 C   0  0  0  0  0  0  0  0  0  0  0  0
   -2.9964    2.8695   -2.8588 C   0  0  0  0  0  0  0  0  0  0  0  0
   -3.3956    3.3817   -4.0773 C   0  0  0  0  0  0  0  0  0  0  0  0
   -1.6329    3.0162   -0.8714 N   0  0  0  0  0  0  0  0  0  0  0  0
   -2.3588    1.7777   -0.5574 C   0  0  0  0  0  0  0  0  0  0  0  0
   -1.8368    1.2042    0.7621 C   0  0  0  0  0  0  0  0  0  0  0  0
   -1.2866    3.4378    1.5152 C   0  0  0  0  0  0  0  0  0  0  0  0
   -1.8086    4.0112    0.1957 C   0  0  0  0  0  0  0  0  0  0  0  0
   -1.5914    1.6571    3.1285 C   0  0  0  0  0  0  0  0  0  0  0  0
   -4.1501    6.3207  -10.6725 H   0  0  0  0  0  0  0  0  0  0  0  0
   -5.9017    6.1239  -10.9203 H   0  0  0  0  0  0  0  0  0  0  0  0
   -5.2550    6.3488   -9.2773 H   0  0  0  0  0  0  0  0  0  0  0  0
   -4.5432    0.5941   -9.7284 H   0  0  0  0  0  0  0  0  0  0  0  0
   -4.2713   -0.1518  -14.8936 H   0  0  0  0  0  0  0  0  0  0  0  0
   -6.5754   -1.0028  -15.0239 H   0  0  0  0  0  0  0  0  0  0  0  0
   -8.2239   -0.3852  -13.3060 H   0  0  0  0  0  0  0  0  0  0  0  0
   -3.6422    0.9811   -7.4293 H   0  0  0  0  0  0  0  0  0  0  0  0
   -3.2505    6.0286   -5.9382 H   0  0  0  0  0  0  0  0  0  0  0  0
   -1.4156    6.1239   -4.1855 H   0  0  0  0  0  0  0  0  0  0  0  0
   -0.7116    5.2169   -2.0091 H   0  0  0  0  0  0  0  0  0  0  0  0
   -3.4360    1.9559   -2.4869 H   0  0  0  0  0  0  0  0  0  0  0  0
   -4.1481    2.8690   -4.6582 H   0  0  0  0  0  0  0  0  0  0  0  0
   -2.2030    1.0524   -1.3560 H   0  0  0  0  0  0  0  0  0  0  0  0
   -3.4231    1.9936   -0.4644 H   0  0  0  0  0  0  0  0  0  0  0  0
   -2.3938    0.3011    1.0117 H   0  0  0  0  0  0  0  0  0  0  0  0
   -0.7788    0.9626    0.6604 H   0  0  0  0  0  0  0  0  0  0  0  0
   -0.2223    3.2219    1.4222 H   0  0  0  0  0  0  0  0  0  0  0  0
   -1.4421    4.1632    2.3138 H   0  0  0  0  0  0  0  0  0  0  0  0
   -1.2516    4.9144   -0.0539 H   0  0  0  0  0  0  0  0  0  0  0  0
   -2.8666    4.2528    0.2970 H   0  0  0  0  0  0  0  0  0  0  0  0
   -0.5391    1.3766    3.0815 H   0  0  0  0  0  0  0  0  0  0  0  0
   -1.7316    2.4138    3.9004 H   0  0  0  0  0  0  0  0  0  0  0  0
   -2.1912    0.7789    3.3673 H   0  0  0  0  0  0  0  0  0  0  0  0
   -2.0395    2.2052    1.8304 N   0  3  0  0  0  0  0  0  0  0  0  0
   -3.0392    2.4311    1.8909 H   0  0  0  0  0  0  0  0  0  0  0  0
  1  2  1  0  0  0  0
  1 34  1  0  0  0  0
  1 35  1  0  0  0  0
  1 36  1  0  0  0  0
  2  7  1  0  0  0  0
  2  3  1  0  0  0  0
  3 20  2  0  0  0  0
  3  4  1  0  0  0  0
  4  5  1  0  0  0  0
  4 17  2  0  0  0  0
  5  6  2  0  0  0  0
  5 37  1  0  0  0  0
  6  7  1  0  0  0  0
  6  9  1  0  0  0  0
  7  8  2  0  0  0  0
  9 14  2  0  0  0  0
  9 10  1  0  0  0  0
 10 11  2  0  0  0  0
 10 16  1  0  0  0  0
 11 12  1  0  0  0  0
 11 38  1  0  0  0  0
 12 13  2  0  0  0  0
 12 39  1  0  0  0  0
 13 14  1  0  0  0  0
 13 40  1  0  0  0  0
 14 15  1  0  0  0  0
 17 18  1  0  0  0  0
 17 41  1  0  0  0  0
 18 19  2  0  0  0  0
 19 20  1  0  0  0  0
 19 21  1  0  0  0  0
 21 22  1  0  0  0  0
 21 42  1  0  0  0  0
 22 27  2  0  0  0  0
 22 23  1  0  0  0  0
 23 24  2  0  0  0  0
 23 43  1  0  0  0  0
 24 25  1  0  0  0  0
 24 44  1  0  0  0  0
 25 26  2  0  0  0  0
 25 28  1  0  0  0  0
 26 27  1  0  0  0  0
 26 45  1  0  0  0  0
 27 46  1  0  0  0  0
 28 32  1  0  0  0  0
 28 29  1  0  0  0  0
 29 30  1  0  0  0  0
 29 47  1  0  0  0  0
 29 48  1  0  0  0  0
 30 49  1  0  0  0  0
 30 50  1  0  0  0  0
 30 58  1  0  0  0  0
 31 32  1  0  0  0  0
 31 51  1  0  0  0  0
 31 52  1  0  0  0  0
 31 58  1  0  0  0  0
 32 53  1  0  0  0  0
 32 54  1  0  0  0  0
 33 55  1  0  0  0  0
 33 56  1  0  0  0  0
 33 57  1  0  0  0  0
 33 58  1  0  0  0  0
 58 59  1  0  0  0  0
M  CHG  1  58   1
M  END
$$$$
ZINC03815482
  -OEChem-08230709403D

 66 69  0     0  0  0  0  0  0999 V2000
    2.0264    8.2096    2.3954 C   0  0  0  0  0  0  0  0  0  0  0  0
    2.4026    8.1290    0.9145 C   0  0  0  0  0  0  0  0  0  0  0  0
    3.6471    7.3702    0.7675 N   0  0  0  0  0  0  0  0  0  0  0  0
    3.5968    6.0100    0.5949 C   0  0  0  0  0  0  0  0  0  0  0  0
    4.7868    5.2639    0.4516 C   0  0  0  0  0  0  0  0  0  0  0  0
    6.0418    5.9134    0.4849 C   0  0  0  0  0  0  0  0  0  0  0  0
    6.0821    7.2712    0.6566 C   0  0  0  0  0  0  0  0  0  0  0  0
    4.8291    8.0151    0.8026 C   0  0  0  0  0  0  0  0  0  0  0  0
    4.8560    9.2232    0.9562 O   0  0  0  0  0  0  0  0  0  0  0  0
    7.3818    7.9814    0.6954 C   0  0  0  0  0  0  0  0  0  0  0  0
    8.0419    8.1688    1.9104 C   0  0  0  0  0  0  0  0  0  0  0  0
    9.2555    8.8276    1.9390 C   0  0  0  0  0  0  0  0  0  0  0  0
    9.8119    9.3099    0.7680 C   0  0  0  0  0  0  0  0  0  0  0  0
    9.1599    9.1324   -0.4390 C   0  0  0  0  0  0  0  0  0  0  0  0
    7.9483    8.4708   -0.4822 C   0  0  0  0  0  0  0  0  0  0  0  0
    7.1317    8.2492   -1.9980 Cl  0  0  0  0  0  0  0  0  0  0  0  0
    7.3425    7.5696    3.3820 Cl  0  0  0  0  0  0  0  0  0  0  0  0
    4.6913    3.8752    0.2767 C   0  0  0  0  0  0  0  0  0  0  0  0
    3.4930    3.3223    0.2532 N   0  0  0  0  0  0  0  0  0  0  0  0
    2.3941    4.0562    0.3912 C   0  0  0  0  0  0  0  0  0  0  0  0
    2.4337    5.3699    0.5536 N   0  0  0  0  0  0  0  0  0  0  0  0
    1.1651    3.4265    0.3585 N   0  0  0  0  0  0  0  0  0  0  0  0
    1.0957    2.0296    0.2920 C   0  0  0  0  0  0  0  0  0  0  0  0
    2.0510    1.2551    0.9368 C   0  0  0  0  0  0  0  0  0  0  0  0
    1.9816   -0.1226    0.8710 C   0  0  0  0  0  0  0  0  0  0  0  0
    0.9576   -0.7327    0.1615 C   0  0  0  0  0  0  0  0  0  0  0  0
    0.0029    0.0403   -0.4828 C   0  0  0  0  0  0  0  0  0  0  0  0
    0.0711    1.4180   -0.4184 C   0  0  0  0  0  0  0  0  0  0  0  0
    0.8894   -2.0893    0.0980 O   0  0  0  0  0  0  0  0  0  0  0  0
   -0.1914   -2.6503   -0.6498 C   0  0  0  0  0  0  0  0  0  0  0  0
   -0.0357   -4.1712   -0.7085 C   0  0  0  0  0  0  0  0  0  0  0  0
   -1.5478   -4.7397    1.0951 C   0  0  0  0  0  0  0  0  0  0  0  0
   -1.6026   -5.0866    2.5842 C   0  0  0  0  0  0  0  0  0  0  0  0
    0.4370   -6.0731    0.7135 C   0  0  0  0  0  0  0  0  0  0  0  0
    1.9503   -5.9810    0.5078 C   0  0  0  0  0  0  0  0  0  0  0  0
    2.8235    8.7089    2.9461 H   0  0  0  0  0  0  0  0  0  0  0  0
    1.1004    8.7741    2.5048 H   0  0  0  0  0  0  0  0  0  0  0  0
    1.8872    7.2032    2.7902 H   0  0  0  0  0  0  0  0  0  0  0  0
    2.5418    9.1353    0.5197 H   0  0  0  0  0  0  0  0  0  0  0  0
    1.6054    7.6296    0.3638 H   0  0  0  0  0  0  0  0  0  0  0  0
    6.9551    5.3474    0.3754 H   0  0  0  0  0  0  0  0  0  0  0  0
    9.7695    8.9697    2.8782 H   0  0  0  0  0  0  0  0  0  0  0  0
   10.7593    9.8276    0.7963 H   0  0  0  0  0  0  0  0  0  0  0  0
    9.5995    9.5117   -1.3497 H   0  0  0  0  0  0  0  0  0  0  0  0
    5.5795    3.2713    0.1634 H   0  0  0  0  0  0  0  0  0  0  0  0
    0.3501    3.9521    0.3817 H   0  0  0  0  0  0  0  0  0  0  0  0
    2.8456    1.7299    1.4932 H   0  0  0  0  0  0  0  0  0  0  0  0
    2.7245   -0.7251    1.3724 H   0  0  0  0  0  0  0  0  0  0  0  0
   -0.7939   -0.4355   -1.0353 H   0  0  0  0  0  0  0  0  0  0  0  0
   -0.6721    2.0197   -0.9205 H   0  0  0  0  0  0  0  0  0  0  0  0
   -1.1359   -2.4001   -0.1667 H   0  0  0  0  0  0  0  0  0  0  0  0
   -0.1822   -2.2448   -1.6616 H   0  0  0  0  0  0  0  0  0  0  0  0
   -0.8173   -4.5923   -1.3409 H   0  0  0  0  0  0  0  0  0  0  0  0
    0.9410   -4.4207   -1.1233 H   0  0  0  0  0  0  0  0  0  0  0  0
   -1.9893   -3.7562    0.9346 H   0  0  0  0  0  0  0  0  0  0  0  0
   -2.1051   -5.4851    0.5277 H   0  0  0  0  0  0  0  0  0  0  0  0
   -1.1610   -6.0702    2.7447 H   0  0  0  0  0  0  0  0  0  0  0  0
   -1.0453   -4.3412    3.1517 H   0  0  0  0  0  0  0  0  0  0  0  0
   -2.6404   -5.0955    2.9173 H   0  0  0  0  0  0  0  0  0  0  0  0
    0.2290   -6.5116    1.6895 H   0  0  0  0  0  0  0  0  0  0  0  0
    0.0017   -6.6984   -0.0660 H   0  0  0  0  0  0  0  0  0  0  0  0
    2.1588   -5.4709   -0.4327 H   0  0  0  0  0  0  0  0  0  0  0  0
    2.3955   -5.4219    1.3308 H   0  0  0  0  0  0  0  0  0  0  0  0
    2.3747   -6.9845    0.4787 H   0  0  0  0  0  0  0  0  0  0  0  0
   -0.1342   -4.7107    0.6640 N   0  3  0  0  0  0  0  0  0  0  0  0
    0.3960   -4.1035    1.2999 H   0  0  0  0  0  0  0  0  0  0  0  0
  1  2  1  0  0  0  0
  1 36  1  0  0  0  0
  1 37  1  0  0  0  0
  1 38  1  0  0  0  0
  2  3  1  0  0  0  0
  2 39  1  0  0  0  0
  2 40  1  0  0  0  0
  3  8  1  0  0  0  0
  3  4  1  0  0  0  0
  4 21  2  0  0  0  0
  4  5  1  0  0  0  0
  5  6  1  0  0  0  0
  5 18  2  0  0  0  0
  6  7  2  0  0  0  0
  6 41  1  0  0  0  0
  7  8  1  0  0  0  0
  7 10  1  0  0  0  0
  8  9  2  0  0  0  0
 10 15  2  0  0  0  0
 10 11  1  0  0  0  0
 11 12  2  0  0  0  0
 11 17  1  0  0  0  0
 12 13  1  0  0  0  0
 12 42  1  0  0  0  0
 13 14  2  0  0  0  0
 13 43  1  0  0  0  0
 14 15  1  0  0  0  0
 14 44  1  0  0  0  0
 15 16  1  0  0  0  0
 18 19  1  0  0  0  0
 18 45  1  0  0  0  0
 19 20  2  0  0  0  0
 20 21  1  0  0  0  0
 20 22  1  0  0  0  0
 22 23  1  0  0  0  0
 22 46  1  0  0  0  0
 23 28  2  0  0  0  0
 23 24  1  0  0  0  0
 24 25  2  0  0  0  0
 24 47  1  0  0  0  0
 25 26  1  0  0  0  0
 25 48  1  0  0  0  0
 26 27  2  0  0  0  0
 26 29  1  0  0  0  0
 27 28  1  0  0  0  0
 27 49  1  0  0  0  0
 28 50  1  0  0  0  0
 29 30  1  0  0  0  0
 30 31  1  0  0  0  0
 30 51  1  0  0  0  0
 30 52  1  0  0  0  0
 31 53  1  0  0  0  0
 31 54  1  0  0  0  0
 31 65  1  0  0  0  0
 32 33  1  0  0  0  0
 32 55  1  0  0  0  0
 32 56  1  0  0  0  0
 32 65  1  0  0  0  0
 33 57  1  0  0  0  0
 33 58  1  0  0  0  0
 33 59  1  0  0  0  0
 34 35  1  0  0  0  0
 34 60  1  0  0  0  0
 34 61  1  0  0  0  0
 34 65  1  0  0  0  0
 35 62  1  0  0  0  0
 35 63  1  0  0  0  0
 35 64  1  0  0  0  0
 65 66  1  0  0  0  0
M  CHG  1  65   1
M  END
$$$$
ZINC03815483
  -OEChem-08230709403D

 63 66  0     0  0  0  0  0  0999 V2000
    1.5894    9.2284    0.0640 C   0  0  0  0  0  0  0  0  0  0  0  0
    1.8353    8.8707   -1.4032 C   0  0  0  0  0  0  0  0  0  0  0  0
    3.1219    8.1814   -1.5287 N   0  0  0  0  0  0  0  0  0  0  0  0
    3.1731    6.8144   -1.4229 C   0  0  0  0  0  0  0  0  0  0  0  0
    4.4048    6.1347   -1.5415 C   0  0  0  0  0  0  0  0  0  0  0  0
    5.5972    6.8583   -1.7706 C   0  0  0  0  0  0  0  0  0  0  0  0
    5.5363    8.2221   -1.8757 C   0  0  0  0  0  0  0  0  0  0  0  0
    4.2425    8.8960   -1.7473 C   0  0  0  0  0  0  0  0  0  0  0  0
    4.1793   10.1091   -1.8391 O   0  0  0  0  0  0  0  0  0  0  0  0
    6.7683    9.0090   -2.1161 C   0  0  0  0  0  0  0  0  0  0  0  0
    7.5174    9.4846   -1.0392 C   0  0  0  0  0  0  0  0  0  0  0  0
    8.6676   10.2135   -1.2702 C   0  0  0  0  0  0  0  0  0  0  0  0
    9.0720   10.4809   -2.5658 C   0  0  0  0  0  0  0  0  0  0  0  0
    8.3309   10.0172   -3.6378 C   0  0  0  0  0  0  0  0  0  0  0  0
    7.1816    9.2827   -3.4206 C   0  0  0  0  0  0  0  0  0  0  0  0
    6.2530    8.7016   -4.7673 Cl  0  0  0  0  0  0  0  0  0  0  0  0
    7.0083    9.1552    0.5875 Cl  0  0  0  0  0  0  0  0  0  0  0  0
    4.4133    4.7364   -1.4275 C   0  0  0  0  0  0  0  0  0  0  0  0
    3.2698    4.1129   -1.2141 N   0  0  0  0  0  0  0  0  0  0  0  0
    2.1290    4.7856   -1.1078 C   0  0  0  0  0  0  0  0  0  0  0  0
    2.0702    6.1045   -1.2132 N   0  0  0  0  0  0  0  0  0  0  0  0
    0.9607    4.0833   -0.8848 N   0  0  0  0  0  0  0  0  0  0  0  0
    1.0056    2.7009   -0.6665 C   0  0  0  0  0  0  0  0  0  0  0  0
    2.0864    2.1375   -0.0009 C   0  0  0  0  0  0  0  0  0  0  0  0
    2.1297    0.7741    0.2143 C   0  0  0  0  0  0  0  0  0  0  0  0
    1.0939   -0.0325   -0.2337 C   0  0  0  0  0  0  0  0  0  0  0  0
    0.0140    0.5296   -0.8986 C   0  0  0  0  0  0  0  0  0  0  0  0
   -0.0307    1.8927   -1.1151 C   0  0  0  0  0  0  0  0  0  0  0  0
    1.1369   -1.3748   -0.0205 O   0  0  0  0  0  0  0  0  0  0  0  0
    0.0366   -2.1448   -0.5087 C   0  0  0  0  0  0  0  0  0  0  0  0
    1.1265   -3.4902   -2.2012 C   0  0  0  0  0  0  0  0  0  0  0  0
    2.5639   -3.0241   -1.9611 C   0  0  0  0  0  0  0  0  0  0  0  0
   -1.0950   -2.6125   -2.5976 C   0  0  0  0  0  0  0  0  0  0  0  0
   -0.9461   -2.4498   -4.1116 C   0  0  0  0  0  0  0  0  0  0  0  0
    1.5735    8.3175    0.6623 H   0  0  0  0  0  0  0  0  0  0  0  0
    2.3874    9.8814    0.4174 H   0  0  0  0  0  0  0  0  0  0  0  0
    0.6321    9.7413    0.1574 H   0  0  0  0  0  0  0  0  0  0  0  0
    1.8512    9.7817   -2.0015 H   0  0  0  0  0  0  0  0  0  0  0  0
    1.0373    8.2178   -1.7566 H   0  0  0  0  0  0  0  0  0  0  0  0
    6.5420    6.3431   -1.8624 H   0  0  0  0  0  0  0  0  0  0  0  0
    9.2504   10.5787   -0.4376 H   0  0  0  0  0  0  0  0  0  0  0  0
    9.9701   11.0545   -2.7410 H   0  0  0  0  0  0  0  0  0  0  0  0
    8.6519   10.2297   -4.6469 H   0  0  0  0  0  0  0  0  0  0  0  0
    5.3361    4.1818   -1.5130 H   0  0  0  0  0  0  0  0  0  0  0  0
    0.1091    4.5477   -0.8794 H   0  0  0  0  0  0  0  0  0  0  0  0
    2.8906    2.7659    0.3522 H   0  0  0  0  0  0  0  0  0  0  0  0
    2.9701    0.3358    0.7320 H   0  0  0  0  0  0  0  0  0  0  0  0
   -0.7919   -0.0992   -1.2474 H   0  0  0  0  0  0  0  0  0  0  0  0
   -0.8714    2.3300   -1.6331 H   0  0  0  0  0  0  0  0  0  0  0  0
    0.0036   -3.1020    0.0117 H   0  0  0  0  0  0  0  0  0  0  0  0
   -0.8927   -1.6031   -0.3322 H   0  0  0  0  0  0  0  0  0  0  0  0
    0.8943   -4.3144   -1.5268 H   0  0  0  0  0  0  0  0  0  0  0  0
    1.0206   -3.8244   -3.2333 H   0  0  0  0  0  0  0  0  0  0  0  0
    3.2556   -3.8147   -2.2520 H   0  0  0  0  0  0  0  0  0  0  0  0
    2.7607   -2.1321   -2.5558 H   0  0  0  0  0  0  0  0  0  0  0  0
    2.6993   -2.7935   -0.9044 H   0  0  0  0  0  0  0  0  0  0  0  0
   -1.4349   -3.6234   -2.3725 H   0  0  0  0  0  0  0  0  0  0  0  0
   -1.8236   -1.8927   -2.2247 H   0  0  0  0  0  0  0  0  0  0  0  0
   -0.6306   -1.4314   -4.3383 H   0  0  0  0  0  0  0  0  0  0  0  0
   -0.1990   -3.1523   -4.4808 H   0  0  0  0  0  0  0  0  0  0  0  0
   -1.9027   -2.6498   -4.5943 H   0  0  0  0  0  0  0  0  0  0  0  0
    0.2136   -2.3528   -1.9614 N   0  3  0  0  0  0  0  0  0  0  0  0
    0.6219   -1.5051   -2.3724 H   0  0  0  0  0  0  0  0  0  0  0  0
  1  2  1  0  0  0  0
  1 35  1  0  0  0  0
  1 36  1  0  0  0  0
  1 37  1  0  0  0  0
  2  3  1  0  0  0  0
  2 38  1  0  0  0  0
  2 39  1  0  0  0  0
  3  8  1  0  0  0  0
  3  4  1  0  0  0  0
  4 21  2  0  0  0  0
  4  5  1  0  0  0  0
  5  6  1  0  0  0  0
  5 18  2  0  0  0  0
  6  7  2  0  0  0  0
  6 40  1  0  0  0  0
  7  8  1  0  0  0  0
  7 10  1  0  0  0  0
  8  9  2  0  0  0  0
 10 15  2  0  0  0  0
 10 11  1  0  0  0  0
 11 12  2  0  0  0  0
 11 17  1  0  0  0  0
 12 13  1  0  0  0  0
 12 41  1  0  0  0  0
 13 14  2  0  0  0  0
 13 42  1  0  0  0  0
 14 15  1  0  0  0  0
 14 43  1  0  0  0  0
 15 16  1  0  0  0  0
 18 19  1  0  0  0  0
 18 44  1  0  0  0  0
 19 20  2  0  0  0  0
 20 21  1  0  0  0  0
 20 22  1  0  0  0  0
 22 23  1  0  0  0  0
 22 45  1  0  0  0  0
 23 28  2  0  0  0  0
 23 24  1  0  0  0  0
 24 25  2  0  0  0  0
 24 46  1  0  0  0  0
 25 26  1  0  0  0  0
 25 47  1  0  0  0  0
 26 27  2  0  0  0  0
 26 29  1  0  0  0  0
 27 28  1  0  0  0  0
 27 48  1  0  0  0  0
 28 49  1  0  0  0  0
 29 30  1  0  0  0  0
 30 50  1  0  0  0  0
 30 51  1  0  0  0  0
 30 62  1  0  0  0  0
 31 32  1  0  0  0  0
 31 52  1  0  0  0  0
 31 53  1  0  0  0  0
 31 62  1  0  0  0  0
 32 54  1  0  0  0  0
 32 55  1  0  0  0  0
 32 56  1  0  0  0  0
 33 34  1  0  0  0  0
 33 57  1  0  0  0  0
 33 58  1  0  0  0  0
 33 62  1  0  0  0  0
 34 59  1  0  0  0  0
 34 60  1  0  0  0  0
 34 61  1  0  0  0  0
 62 63  1  0  0  0  0
M  CHG  1  62   1
M  END
$$$$
ZINC03815484
  -OEChem-08230709403D

 34 36  0     0  0  0  0  0  0999 V2000
    3.0060    3.5075    0.1262 C   0  0  0  0  0  0  0  0  0  0  0  0
    3.3625    2.4024   -0.6291 C   0  0  0  0  0  0  0  0  0  0  0  0
    2.4033    1.6657   -1.2936 C   0  0  0  0  0  0  0  0  0  0  0  0
    1.0630    2.0269   -1.2085 C   0  0  0  0  0  0  0  0  0  0  0  0
    0.7062    3.1454   -0.4430 C   0  0  0  0  0  0  0  0  0  0  0  0
    1.6812    3.8820    0.2222 C   0  0  0  0  0  0  0  0  0  0  0  0
   -0.7645    3.2703   -0.5479 C   0  0  0  0  0  0  0  0  0  0  0  0
   -1.5708    4.2263    0.0398 C   0  0  0  0  0  0  0  0  0  0  0  0
   -2.9740    4.1098   -0.0381 C   0  0  0  0  0  0  0  0  0  0  0  0
   -3.8807    5.1552   -0.1239 C   0  0  0  0  0  0  0  0  0  0  0  0
   -5.1551    4.5880   -0.1809 C   0  0  0  0  0  0  0  0  0  0  0  0
   -5.0156    3.2398   -0.1308 C   0  0  0  0  0  0  0  0  0  0  0  0
   -3.6959    2.9356   -0.0492 N   0  0  0  0  0  0  0  0  0  0  0  0
   -3.3228    2.0413   -0.0041 H   0  0  0  0  0  0  0  0  0  0  0  0
   -3.5526    6.6258   -0.1508 C   0  0  0  0  0  0  0  0  0  0  0  0
   -3.2354    7.0513   -1.5858 C   0  0  0  0  0  0  0  0  0  0  0  0
   -2.9072    8.5219   -1.6128 C   0  0  0  0  0  0  0  0  0  0  0  0
   -2.9252    9.1638   -0.5893 O   0  0  0  0  0  0  0  0  0  0  0  0
   -1.1810    2.1617   -1.4163 C   0  0  0  0  0  0  0  0  0  0  0  0
   -2.3230    1.9105   -1.7583 O   0  0  0  0  0  0  0  0  0  0  0  0
   -0.0823    1.4710   -1.7650 N   0  0  0  0  0  0  0  0  0  0  0  0
    3.7659    4.0766    0.6410 H   0  0  0  0  0  0  0  0  0  0  0  0
    4.4012    2.1151   -0.6993 H   0  0  0  0  0  0  0  0  0  0  0  0
    2.6938    0.8061   -1.8794 H   0  0  0  0  0  0  0  0  0  0  0  0
    1.4024    4.7430    0.8114 H   0  0  0  0  0  0  0  0  0  0  0  0
   -1.1263    5.0626    0.5588 H   0  0  0  0  0  0  0  0  0  0  0  0
   -6.0878    5.1278   -0.2521 H   0  0  0  0  0  0  0  0  0  0  0  0
   -5.8240    2.5241   -0.1565 H   0  0  0  0  0  0  0  0  0  0  0  0
   -4.4062    7.1953    0.2168 H   0  0  0  0  0  0  0  0  0  0  0  0
   -2.6876    6.8167    0.4844 H   0  0  0  0  0  0  0  0  0  0  0  0
   -2.3818    6.4818   -1.9534 H   0  0  0  0  0  0  0  0  0  0  0  0
   -4.1003    6.8603   -2.2210 H   0  0  0  0  0  0  0  0  0  0  0  0
   -0.0876    0.6868   -2.3358 H   0  0  0  0  0  0  0  0  0  0  0  0
   -2.5949    9.1187   -2.7738 O   0  5  0  0  0  0  0  0  0  0  0  0
  1  6  2  0  0  0  0
  1  2  1  0  0  0  0
  1 22  1  0  0  0  0
  2  3  2  0  0  0  0
  2 23  1  0  0  0  0
  3  4  1  0  0  0  0
  3 24  1  0  0  0  0
  4 21  1  0  0  0  0
  4  5  2  0  0  0  0
  5  6  1  0  0  0  0
  5  7  1  0  0  0  0
  6 25  1  0  0  0  0
  7  8  2  0  0  0  0
  7 19  1  0  0  0  0
  8  9  1  0  0  0  0
  8 26  1  0  0  0  0
  9 13  1  0  0  0  0
  9 10  2  0  0  0  0
 10 11  1  0  0  0  0
 10 15  1  0  0  0  0
 11 12  2  0  0  0  0
 11 27  1  0  0  0  0
 12 13  1  0  0  0  0
 12 28  1  0  0  0  0
 13 14  1  0  0  0  0
 15 16  1  0  0  0  0
 15 29  1  0  0  0  0
 15 30  1  0  0  0  0
 16 17  1  0  0  0  0
 16 31  1  0  0  0  0
 16 32  1  0  0  0  0
 17 18  2  0  0  0  0
 17 34  1  0  0  0  0
 19 20  2  0  0  0  0
 19 21  1  0  0  0  0
 21 33  1  0  0  0  0
M  CHG  1  34  -1
M  END
$$$$
ZINC03815485
  -OEChem-08230709403D

 37 39  0     0  0  0  0  0  0999 V2000
    6.4107    5.2592    0.3537 C   0  0  0  0  0  0  0  0  0  0  0  0
    5.3007    4.2465    0.2384 C   0  0  0  0  0  0  0  0  0  0  0  0
    5.4531    2.9006    0.1670 C   0  0  0  0  0  0  0  0  0  0  0  0
    4.2294    2.3226    0.0715 N   0  0  0  0  0  0  0  0  0  0  0  0
    4.0567    1.3703    0.0065 H   0  0  0  0  0  0  0  0  0  0  0  0
    3.2725    3.3147    0.0816 C   0  0  0  0  0  0  0  0  0  0  0  0
    3.9347    4.5288    0.1802 C   0  0  0  0  0  0  0  0  0  0  0  0
    3.2997    5.8949    0.2206 C   0  0  0  0  0  0  0  0  0  0  0  0
    3.0113    6.2804    1.6729 C   0  0  0  0  0  0  0  0  0  0  0  0
    2.3763    7.6465    1.7134 C   0  0  0  0  0  0  0  0  0  0  0  0
    2.1750    8.2498    0.6860 O   0  0  0  0  0  0  0  0  0  0  0  0
    1.8769    3.1293    0.0005 C   0  0  0  0  0  0  0  0  0  0  0  0
    1.3602    2.0950   -0.7562 C   0  0  0  0  0  0  0  0  0  0  0  0
   -0.0507    1.6563   -0.8367 C   0  0  0  0  0  0  0  0  0  0  0  0
   -1.2222    2.0949   -0.2277 C   0  0  0  0  0  0  0  0  0  0  0  0
   -2.4180    1.4683   -0.5138 C   0  0  0  0  0  0  0  0  0  0  0  0
   -2.4493    0.4013   -1.3965 C   0  0  0  0  0  0  0  0  0  0  0  0
   -1.2923   -0.0444   -2.0023 C   0  0  0  0  0  0  0  0  0  0  0  0
   -0.0783    0.5770   -1.7304 C   0  0  0  0  0  0  0  0  0  0  0  0
    1.2094    0.3347   -2.1925 N   0  0  0  0  0  0  0  0  0  0  0  0
    2.0923    1.1937   -1.6552 C   0  0  0  0  0  0  0  0  0  0  0  0
    3.2903    1.2198   -1.8751 O   0  0  0  0  0  0  0  0  0  0  0  0
    6.7296    5.5639   -0.6430 H   0  0  0  0  0  0  0  0  0  0  0  0
    6.0524    6.1301    0.9026 H   0  0  0  0  0  0  0  0  0  0  0  0
    7.2530    4.8161    0.8851 H   0  0  0  0  0  0  0  0  0  0  0  0
    6.3961    2.3743    0.1835 H   0  0  0  0  0  0  0  0  0  0  0  0
    3.9786    6.6243   -0.2210 H   0  0  0  0  0  0  0  0  0  0  0  0
    2.3669    5.8788   -0.3431 H   0  0  0  0  0  0  0  0  0  0  0  0
    2.3324    5.5510    2.1146 H   0  0  0  0  0  0  0  0  0  0  0  0
    3.9441    6.2965    2.2366 H   0  0  0  0  0  0  0  0  0  0  0  0
    1.2120    3.7956    0.5299 H   0  0  0  0  0  0  0  0  0  0  0  0
   -1.1970    2.9269    0.4604 H   0  0  0  0  0  0  0  0  0  0  0  0
   -3.3302    1.8080   -0.0459 H   0  0  0  0  0  0  0  0  0  0  0  0
   -3.3882   -0.0868   -1.6125 H   0  0  0  0  0  0  0  0  0  0  0  0
   -1.3297   -0.8771   -2.6890 H   0  0  0  0  0  0  0  0  0  0  0  0
    1.4415   -0.3650   -2.8228 H   0  0  0  0  0  0  0  0  0  0  0  0
    2.0343    8.1931    2.8907 O   0  5  0  0  0  0  0  0  0  0  0  0
  1  2  1  0  0  0  0
  1 23  1  0  0  0  0
  1 24  1  0  0  0  0
  1 25  1  0  0  0  0
  2  7  1  0  0  0  0
  2  3  2  0  0  0  0
  3  4  1  0  0  0  0
  3 26  1  0  0  0  0
  4  5  1  0  0  0  0
  4  6  1  0  0  0  0
  6  7  2  0  0  0  0
  6 12  1  0  0  0  0
  7  8  1  0  0  0  0
  8  9  1  0  0  0  0
  8 27  1  0  0  0  0
  8 28  1  0  0  0  0
  9 10  1  0  0  0  0
  9 29  1  0  0  0  0
  9 30  1  0  0  0  0
 10 11  2  0  0  0  0
 10 37  1  0  0  0  0
 12 13  2  0  0  0  0
 12 31  1  0  0  0  0
 13 21  1  0  0  0  0
 13 14  1  0  0  0  0
 14 19  2  0  0  0  0
 14 15  1  0  0  0  0
 15 16  2  0  0  0  0
 15 32  1  0  0  0  0
 16 17  1  0  0  0  0
 16 33  1  0  0  0  0
 17 18  2  0  0  0  0
 17 34  1  0  0  0  0
 18 19  1  0  0  0  0
 18 35  1  0  0  0  0
 19 20  1  0  0  0  0
 20 21  1  0  0  0  0
 20 36  1  0  0  0  0
 21 22  2  0  0  0  0
M  CHG  1  37  -1
M  END
$$$$
ZINC03815488
  -OEChem-08230709403D

 63 66  0     0  0  0  0  0  0999 V2000
    1.4887    2.0457    2.9267 C   0  0  0  0  0  0  0  0  0  0  0  0
    0.1005    1.4243    2.7597 C   0  0  0  0  0  0  0  0  0  0  0  0
   -0.5898    3.1680    1.2281 C   0  0  0  0  0  0  0  0  0  0  0  0
   -1.7843    3.6452    2.0567 C   0  0  0  0  0  0  0  0  0  0  0  0
    0.4705    1.1628    0.3811 C   0  0  0  0  0  0  0  0  0  0  0  0
    0.4361   -0.3651    0.4536 C   0  0  0  0  0  0  0  0  0  0  0  0
   -0.8750   -0.8282    0.1240 O   0  0  0  0  0  0  0  0  0  0  0  0
   -1.0772   -2.1720    0.1412 C   0  0  0  0  0  0  0  0  0  0  0  0
   -0.0325   -3.0273    0.4635 C   0  0  0  0  0  0  0  0  0  0  0  0
   -0.2376   -4.3936    0.4862 C   0  0  0  0  0  0  0  0  0  0  0  0
   -1.4800   -4.9135    0.1781 C   0  0  0  0  0  0  0  0  0  0  0  0
   -2.5279   -4.0626   -0.1503 C   0  0  0  0  0  0  0  0  0  0  0  0
   -2.3249   -2.6893   -0.1684 C   0  0  0  0  0  0  0  0  0  0  0  0
   -3.7850   -4.5884   -0.4625 N   0  0  0  0  0  0  0  0  0  0  0  0
   -3.8828   -5.7643   -1.1815 C   0  0  0  0  0  0  0  0  0  0  0  0
   -2.7732   -6.3146   -1.6626 N   0  0  0  0  0  0  0  0  0  0  0  0
   -2.8115   -7.4398   -2.3509 C   0  0  0  0  0  0  0  0  0  0  0  0
   -4.0566   -8.0459   -2.5785 C   0  0  0  0  0  0  0  0  0  0  0  0
   -4.1623   -9.2485   -3.3137 C   0  0  0  0  0  0  0  0  0  0  0  0
   -5.3999   -9.8006   -3.5087 C   0  0  0  0  0  0  0  0  0  0  0  0
   -6.5800   -9.1343   -2.9535 C   0  0  0  0  0  0  0  0  0  0  0  0
   -7.6849   -9.6187   -3.1219 O   0  0  0  0  0  0  0  0  0  0  0  0
   -6.4496   -7.9887   -2.2572 N   0  0  0  0  0  0  0  0  0  0  0  0
   -5.2134   -7.4284   -2.0564 C   0  0  0  0  0  0  0  0  0  0  0  0
   -5.0794   -6.2987   -1.3704 N   0  0  0  0  0  0  0  0  0  0  0  0
   -7.6400   -7.3344   -1.7083 C   0  0  0  0  0  0  0  0  0  0  0  0
   -5.5442  -11.0605   -4.2749 C   0  0  0  0  0  0  0  0  0  0  0  0
   -5.7399  -11.0222   -5.6560 C   0  0  0  0  0  0  0  0  0  0  0  0
   -5.8692  -12.2005   -6.3649 C   0  0  0  0  0  0  0  0  0  0  0  0
   -5.8148  -13.4163   -5.7074 C   0  0  0  0  0  0  0  0  0  0  0  0
   -5.6263  -13.4611   -4.3378 C   0  0  0  0  0  0  0  0  0  0  0  0
   -5.4907  -12.2903   -3.6177 C   0  0  0  0  0  0  0  0  0  0  0  0
   -5.2547  -12.3486   -1.8988 Cl  0  0  0  0  0  0  0  0  0  0  0  0
   -5.8150   -9.4972   -6.4820 Cl  0  0  0  0  0  0  0  0  0  0  0  0
    1.4066    3.1321    2.8955 H   0  0  0  0  0  0  0  0  0  0  0  0
    1.9105    1.7406    3.8843 H   0  0  0  0  0  0  0  0  0  0  0  0
    2.1379    1.7070    2.1193 H   0  0  0  0  0  0  0  0  0  0  0  0
   -0.5761    1.8407    3.5060 H   0  0  0  0  0  0  0  0  0  0  0  0
    0.1675    0.3445    2.8921 H   0  0  0  0  0  0  0  0  0  0  0  0
    0.3098    3.6906    1.5532 H   0  0  0  0  0  0  0  0  0  0  0  0
   -0.7715    3.3784    0.1742 H   0  0  0  0  0  0  0  0  0  0  0  0
   -2.6602    3.0449    1.8106 H   0  0  0  0  0  0  0  0  0  0  0  0
   -1.5568    3.5381    3.1173 H   0  0  0  0  0  0  0  0  0  0  0  0
   -1.9868    4.6925    1.8325 H   0  0  0  0  0  0  0  0  0  0  0  0
    1.4901    1.5114    0.5452 H   0  0  0  0  0  0  0  0  0  0  0  0
    0.1292    1.4877   -0.6017 H   0  0  0  0  0  0  0  0  0  0  0  0
    1.1558   -0.7787   -0.2528 H   0  0  0  0  0  0  0  0  0  0  0  0
    0.6918   -0.6868    1.4632 H   0  0  0  0  0  0  0  0  0  0  0  0
    0.9410   -2.6242    0.7008 H   0  0  0  0  0  0  0  0  0  0  0  0
    0.5760   -5.0566    0.7409 H   0  0  0  0  0  0  0  0  0  0  0  0
   -1.6367   -5.9819    0.1929 H   0  0  0  0  0  0  0  0  0  0  0  0
   -3.1377   -2.0256   -0.4237 H   0  0  0  0  0  0  0  0  0  0  0  0
   -4.5886   -4.1279   -0.1743 H   0  0  0  0  0  0  0  0  0  0  0  0
   -1.9043   -7.8827   -2.7346 H   0  0  0  0  0  0  0  0  0  0  0  0
   -3.2801   -9.7251   -3.7149 H   0  0  0  0  0  0  0  0  0  0  0  0
   -8.0388   -6.6323   -2.4404 H   0  0  0  0  0  0  0  0  0  0  0  0
   -8.3943   -8.0867   -1.4778 H   0  0  0  0  0  0  0  0  0  0  0  0
   -7.3724   -6.7976   -0.7982 H   0  0  0  0  0  0  0  0  0  0  0  0
   -6.0166  -12.1724   -7.4344 H   0  0  0  0  0  0  0  0  0  0  0  0
   -5.9203  -14.3347   -6.2659 H   0  0  0  0  0  0  0  0  0  0  0  0
   -5.5854  -14.4135   -3.8304 H   0  0  0  0  0  0  0  0  0  0  0  0
   -0.4363    1.7095    1.4124 N   0  3  0  0  0  0  0  0  0  0  0  0
   -1.3561    1.2629    1.3184 H   0  0  0  0  0  0  0  0  0  0  0  0
  1  2  1  0  0  0  0
  1 35  1  0  0  0  0
  1 36  1  0  0  0  0
  1 37  1  0  0  0  0
  2 38  1  0  0  0  0
  2 39  1  0  0  0  0
  2 62  1  0  0  0  0
  3  4  1  0  0  0  0
  3 40  1  0  0  0  0
  3 41  1  0  0  0  0
  3 62  1  0  0  0  0
  4 42  1  0  0  0  0
  4 43  1  0  0  0  0
  4 44  1  0  0  0  0
  5  6  1  0  0  0  0
  5 45  1  0  0  0  0
  5 46  1  0  0  0  0
  5 62  1  0  0  0  0
  6  7  1  0  0  0  0
  6 47  1  0  0  0  0
  6 48  1  0  0  0  0
  7  8  1  0  0  0  0
  8 13  2  0  0  0  0
  8  9  1  0  0  0  0
  9 10  2  0  0  0  0
  9 49  1  0  0  0  0
 10 11  1  0  0  0  0
 10 50  1  0  0  0  0
 11 12  2  0  0  0  0
 11 51  1  0  0  0  0
 12 13  1  0  0  0  0
 12 14  1  0  0  0  0
 13 52  1  0  0  0  0
 14 15  1  0  0  0  0
 14 53  1  0  0  0  0
 15 25  2  0  0  0  0
 15 16  1  0  0  0  0
 16 17  2  0  0  0  0
 17 18  1  0  0  0  0
 17 54  1  0  0  0  0
 18 24  2  0  0  0  0
 18 19  1  0  0  0  0
 19 20  2  0  0  0  0
 19 55  1  0  0  0  0
 20 21  1  0  0  0  0
 20 27  1  0  0  0  0
 21 22  2  0  0  0  0
 21 23  1  0  0  0  0
 23 24  1  0  0  0  0
 23 26  1  0  0  0  0
 24 25  1  0  0  0  0
 26 56  1  0  0  0  0
 26 57  1  0  0  0  0
 26 58  1  0  0  0  0
 27 32  2  0  0  0  0
 27 28  1  0  0  0  0
 28 29  2  0  0  0  0
 28 34  1  0  0  0  0
 29 30  1  0  0  0  0
 29 59  1  0  0  0  0
 30 31  2  0  0  0  0
 30 60  1  0  0  0  0
 31 32  1  0  0  0  0
 31 61  1  0  0  0  0
 32 33  1  0  0  0  0
 62 63  1  0  0  0  0
M  CHG  1  62   1
M  END
$$$$
ZINC03815489
  -OEChem-08230709403D

 60 63  0     0  0  0  0  0  0999 V2000
    2.0709    8.2772    0.4276 C   0  0  0  0  0  0  0  0  0  0  0  0
    3.3654    7.5914    0.4148 N   0  0  0  0  0  0  0  0  0  0  0  0
    3.4085    6.2243    0.3059 C   0  0  0  0  0  0  0  0  0  0  0  0
    4.6476    5.5480    0.2920 C   0  0  0  0  0  0  0  0  0  0  0  0
    5.8559    6.2749    0.3904 C   0  0  0  0  0  0  0  0  0  0  0  0
    5.8030    7.6389    0.4978 C   0  0  0  0  0  0  0  0  0  0  0  0
    4.5011    8.3093    0.5096 C   0  0  0  0  0  0  0  0  0  0  0  0
    4.4450    9.5224    0.6053 O   0  0  0  0  0  0  0  0  0  0  0  0
    7.0517    8.4294    0.6022 C   0  0  0  0  0  0  0  0  0  0  0  0
    7.6001    8.7111    1.8540 C   0  0  0  0  0  0  0  0  0  0  0  0
    8.7666    9.4453    1.9441 C   0  0  0  0  0  0  0  0  0  0  0  0
    9.3860    9.9087    0.7974 C   0  0  0  0  0  0  0  0  0  0  0  0
    8.8450    9.6370   -0.4464 C   0  0  0  0  0  0  0  0  0  0  0  0
    7.6814    8.9002   -0.5507 C   0  0  0  0  0  0  0  0  0  0  0  0
    7.0034    8.5613   -2.1124 Cl  0  0  0  0  0  0  0  0  0  0  0  0
    6.8210    8.1355    3.2946 Cl  0  0  0  0  0  0  0  0  0  0  0  0
    4.6477    4.1496    0.1787 C   0  0  0  0  0  0  0  0  0  0  0  0
    3.4895    3.5229    0.0897 N   0  0  0  0  0  0  0  0  0  0  0  0
    2.3421    4.1926    0.1060 C   0  0  0  0  0  0  0  0  0  0  0  0
    2.2918    5.5122    0.2062 N   0  0  0  0  0  0  0  0  0  0  0  0
    1.1585    3.4870    0.0093 N   0  0  0  0  0  0  0  0  0  0  0  0
    1.1757    2.0869    0.0133 C   0  0  0  0  0  0  0  0  0  0  0  0
    2.1234    1.4060    0.7660 C   0  0  0  0  0  0  0  0  0  0  0  0
    2.1394    0.0252    0.7698 C   0  0  0  0  0  0  0  0  0  0  0  0
    1.2089   -0.6817    0.0223 C   0  0  0  0  0  0  0  0  0  0  0  0
    0.2619   -0.0022   -0.7299 C   0  0  0  0  0  0  0  0  0  0  0  0
    0.2448    1.3786   -0.7351 C   0  0  0  0  0  0  0  0  0  0  0  0
    1.2247   -2.0414    0.0273 O   0  0  0  0  0  0  0  0  0  0  0  0
    0.2377   -2.7046   -0.7652 C   0  0  0  0  0  0  0  0  0  0  0  0
    0.4120   -4.2190   -0.6345 C   0  0  0  0  0  0  0  0  0  0  0  0
   -0.6448   -4.9291   -1.4829 C   0  0  0  0  0  0  0  0  0  0  0  0
   -0.7695   -6.8306    0.0109 C   0  0  0  0  0  0  0  0  0  0  0  0
   -1.3127   -7.0954   -2.3337 C   0  0  0  0  0  0  0  0  0  0  0  0
    1.7162    8.3647    1.4546 H   0  0  0  0  0  0  0  0  0  0  0  0
    2.1823    9.2718   -0.0042 H   0  0  0  0  0  0  0  0  0  0  0  0
    1.3510    7.7055   -0.1580 H   0  0  0  0  0  0  0  0  0  0  0  0
    6.8065    5.7624    0.3799 H   0  0  0  0  0  0  0  0  0  0  0  0
    9.1939    9.6612    2.9121 H   0  0  0  0  0  0  0  0  0  0  0  0
   10.2958   10.4856    0.8735 H   0  0  0  0  0  0  0  0  0  0  0  0
    9.3333   10.0020   -1.3378 H   0  0  0  0  0  0  0  0  0  0  0  0
    5.5758    3.5975    0.1643 H   0  0  0  0  0  0  0  0  0  0  0  0
    0.3154    3.9615   -0.0615 H   0  0  0  0  0  0  0  0  0  0  0  0
    2.8449    1.9561    1.3519 H   0  0  0  0  0  0  0  0  0  0  0  0
    2.8763   -0.5046    1.3552 H   0  0  0  0  0  0  0  0  0  0  0  0
   -0.4620   -0.5533   -1.3119 H   0  0  0  0  0  0  0  0  0  0  0  0
   -0.4923    1.9074   -1.3211 H   0  0  0  0  0  0  0  0  0  0  0  0
   -0.7564   -2.4221   -0.4187 H   0  0  0  0  0  0  0  0  0  0  0  0
    0.3547   -2.4142   -1.8092 H   0  0  0  0  0  0  0  0  0  0  0  0
    1.4061   -4.5016   -0.9810 H   0  0  0  0  0  0  0  0  0  0  0  0
    0.2950   -4.5095    0.4096 H   0  0  0  0  0  0  0  0  0  0  0  0
   -1.6389   -4.6466   -1.1364 H   0  0  0  0  0  0  0  0  0  0  0  0
   -0.5278   -4.6387   -2.5270 H   0  0  0  0  0  0  0  0  0  0  0  0
   -1.7978   -6.5738    0.2655 H   0  0  0  0  0  0  0  0  0  0  0  0
   -0.6379   -7.9106    0.0759 H   0  0  0  0  0  0  0  0  0  0  0  0
   -0.0895   -6.3392    0.7068 H   0  0  0  0  0  0  0  0  0  0  0  0
   -1.0276   -6.7965   -3.3424 H   0  0  0  0  0  0  0  0  0  0  0  0
   -1.1696   -8.1698   -2.2190 H   0  0  0  0  0  0  0  0  0  0  0  0
   -2.3607   -6.8483   -2.1641 H   0  0  0  0  0  0  0  0  0  0  0  0
   -0.4500   -6.3894   -1.3631 N   0  3  0  0  0  0  0  0  0  0  0  0
    0.5316   -6.6127   -1.5653 H   0  0  0  0  0  0  0  0  0  0  0  0
  1  2  1  0  0  0  0
  1 34  1  0  0  0  0
  1 35  1  0  0  0  0
  1 36  1  0  0  0  0
  2  7  1  0  0  0  0
  2  3  1  0  0  0  0
  3 20  2  0  0  0  0
  3  4  1  0  0  0  0
  4  5  1  0  0  0  0
  4 17  2  0  0  0  0
  5  6  2  0  0  0  0
  5 37  1  0  0  0  0
  6  7  1  0  0  0  0
  6  9  1  0  0  0  0
  7  8  2  0  0  0  0
  9 14  2  0  0  0  0
  9 10  1  0  0  0  0
 10 11  2  0  0  0  0
 10 16  1  0  0  0  0
 11 12  1  0  0  0  0
 11 38  1  0  0  0  0
 12 13  2  0  0  0  0
 12 39  1  0  0  0  0
 13 14  1  0  0  0  0
 13 40  1  0  0  0  0
 14 15  1  0  0  0  0
 17 18  1  0  0  0  0
 17 41  1  0  0  0  0
 18 19  2  0  0  0  0
 19 20  1  0  0  0  0
 19 21  1  0  0  0  0
 21 22  1  0  0  0  0
 21 42  1  0  0  0  0
 22 27  2  0  0  0  0
 22 23  1  0  0  0  0
 23 24  2  0  0  0  0
 23 43  1  0  0  0  0
 24 25  1  0  0  0  0
 24 44  1  0  0  0  0
 25 26  2  0  0  0  0
 25 28  1  0  0  0  0
 26 27  1  0  0  0  0
 26 45  1  0  0  0  0
 27 46  1  0  0  0  0
 28 29  1  0  0  0  0
 29 30  1  0  0  0  0
 29 47  1  0  0  0  0
 29 48  1  0  0  0  0
 30 31  1  0  0  0  0
 30 49  1  0  0  0  0
 30 50  1  0  0  0  0
 31 51  1  0  0  0  0
 31 52  1  0  0  0  0
 31 59  1  0  0  0  0
 32 53  1  0  0  0  0
 32 54  1  0  0  0  0
 32 55  1  0  0  0  0
 32 59  1  0  0  0  0
 33 56  1  0  0  0  0
 33 57  1  0  0  0  0
 33 58  1  0  0  0  0
 33 59  1  0  0  0  0
 59 60  1  0  0  0  0
M  CHG  1  59   1
M  END
$$$$
ZINC03815490
  -OEChem-08230709403D

 57 60  0     0  0  0  0  0  0999 V2000
    1.8775    8.5250   -0.0210 C   0  0  0  0  0  0  0  0  0  0  0  0
    3.2048    7.9124   -0.1158 N   0  0  0  0  0  0  0  0  0  0  0  0
    3.3189    6.5470   -0.1881 C   0  0  0  0  0  0  0  0  0  0  0  0
    4.5906    5.9406   -0.2799 C   0  0  0  0  0  0  0  0  0  0  0  0
    5.7585    6.7367   -0.2981 C   0  0  0  0  0  0  0  0  0  0  0  0
    5.6348    8.0984   -0.2265 C   0  0  0  0  0  0  0  0  0  0  0  0
    4.3008    8.6952   -0.1317 C   0  0  0  0  0  0  0  0  0  0  0  0
    4.1817    9.9058   -0.0671 O   0  0  0  0  0  0  0  0  0  0  0  0
    6.8397    8.9603   -0.2438 C   0  0  0  0  0  0  0  0  0  0  0  0
    7.4655    9.3139    0.9522 C   0  0  0  0  0  0  0  0  0  0  0  0
    8.5907   10.1146    0.9288 C   0  0  0  0  0  0  0  0  0  0  0  0
    9.0920   10.5732   -0.2761 C   0  0  0  0  0  0  0  0  0  0  0  0
    8.4736   10.2302   -1.4650 C   0  0  0  0  0  0  0  0  0  0  0  0
    7.3503    9.4267   -1.4559 C   0  0  0  0  0  0  0  0  0  0  0  0
    6.5749    8.9984   -2.9489 Cl  0  0  0  0  0  0  0  0  0  0  0  0
    6.8345    8.7443    2.4658 Cl  0  0  0  0  0  0  0  0  0  0  0  0
    4.6632    4.5414   -0.3522 C   0  0  0  0  0  0  0  0  0  0  0  0
    3.5400    3.8486   -0.3315 N   0  0  0  0  0  0  0  0  0  0  0  0
    2.3604    4.4534   -0.2443 C   0  0  0  0  0  0  0  0  0  0  0  0
    2.2412    5.7707   -0.1788 N   0  0  0  0  0  0  0  0  0  0  0  0
    1.2158    3.6801   -0.2270 N   0  0  0  0  0  0  0  0  0  0  0  0
    1.3147    2.2837   -0.1981 C   0  0  0  0  0  0  0  0  0  0  0  0
    2.3614    1.6753    0.4821 C   0  0  0  0  0  0  0  0  0  0  0  0
    2.4580    0.2981    0.5105 C   0  0  0  0  0  0  0  0  0  0  0  0
    1.5096   -0.4776   -0.1399 C   0  0  0  0  0  0  0  0  0  0  0  0
    0.4637    0.1293   -0.8196 C   0  0  0  0  0  0  0  0  0  0  0  0
    0.3659    1.5064   -0.8493 C   0  0  0  0  0  0  0  0  0  0  0  0
    1.6049   -1.8338   -0.1107 O   0  0  0  0  0  0  0  0  0  0  0  0
    0.5938   -2.5702   -0.8017 C   0  0  0  0  0  0  0  0  0  0  0  0
    0.8665   -4.0689   -0.6582 C   0  0  0  0  0  0  0  0  0  0  0  0
   -0.6587   -4.5218    1.1670 C   0  0  0  0  0  0  0  0  0  0  0  0
    1.4343   -5.7290    1.0105 C   0  0  0  0  0  0  0  0  0  0  0  0
    1.5984    8.6269    1.0277 H   0  0  0  0  0  0  0  0  0  0  0  0
    1.8973    9.5093   -0.4890 H   0  0  0  0  0  0  0  0  0  0  0  0
    1.1491    7.8948   -0.5312 H   0  0  0  0  0  0  0  0  0  0  0  0
    6.7336    6.2778   -0.3686 H   0  0  0  0  0  0  0  0  0  0  0  0
    9.0780   10.3862    1.8535 H   0  0  0  0  0  0  0  0  0  0  0  0
    9.9699   11.2021   -0.2887 H   0  0  0  0  0  0  0  0  0  0  0  0
    8.8697   10.5919   -2.4024 H   0  0  0  0  0  0  0  0  0  0  0  0
    5.6181    4.0418   -0.4237 H   0  0  0  0  0  0  0  0  0  0  0  0
    0.3436    4.1045   -0.2349 H   0  0  0  0  0  0  0  0  0  0  0  0
    3.0972    2.2790    0.9925 H   0  0  0  0  0  0  0  0  0  0  0  0
    3.2720   -0.1752    1.0394 H   0  0  0  0  0  0  0  0  0  0  0  0
   -0.2741   -0.4753   -1.3260 H   0  0  0  0  0  0  0  0  0  0  0  0
   -0.4482    1.9788   -1.3789 H   0  0  0  0  0  0  0  0  0  0  0  0
   -0.3816   -2.3360   -0.3755 H   0  0  0  0  0  0  0  0  0  0  0  0
    0.6039   -2.2986   -1.8573 H   0  0  0  0  0  0  0  0  0  0  0  0
    0.1411   -4.6284   -1.2489 H   0  0  0  0  0  0  0  0  0  0  0  0
    1.8729   -4.2908   -1.0133 H   0  0  0  0  0  0  0  0  0  0  0  0
   -1.1808   -5.2602    0.5586 H   0  0  0  0  0  0  0  0  0  0  0  0
   -0.7164   -4.8095    2.2168 H   0  0  0  0  0  0  0  0  0  0  0  0
   -1.1237   -3.5452    1.0318 H   0  0  0  0  0  0  0  0  0  0  0  0
    2.5045   -5.6063    0.8433 H   0  0  0  0  0  0  0  0  0  0  0  0
    1.2604   -6.0340    2.0423 H   0  0  0  0  0  0  0  0  0  0  0  0
    1.0463   -6.4920    0.3357 H   0  0  0  0  0  0  0  0  0  0  0  0
    0.7624   -4.4346    0.7702 N   0  3  0  0  0  0  0  0  0  0  0  0
    1.2224   -3.7103    1.3342 H   0  0  0  0  0  0  0  0  0  0  0  0
  1  2  1  0  0  0  0
  1 33  1  0  0  0  0
  1 34  1  0  0  0  0
  1 35  1  0  0  0  0
  2  7  1  0  0  0  0
  2  3  1  0  0  0  0
  3 20  2  0  0  0  0
  3  4  1  0  0  0  0
  4  5  1  0  0  0  0
  4 17  2  0  0  0  0
  5  6  2  0  0  0  0
  5 36  1  0  0  0  0
  6  7  1  0  0  0  0
  6  9  1  0  0  0  0
  7  8  2  0  0  0  0
  9 14  2  0  0  0  0
  9 10  1  0  0  0  0
 10 11  2  0  0  0  0
 10 16  1  0  0  0  0
 11 12  1  0  0  0  0
 11 37  1  0  0  0  0
 12 13  2  0  0  0  0
 12 38  1  0  0  0  0
 13 14  1  0  0  0  0
 13 39  1  0  0  0  0
 14 15  1  0  0  0  0
 17 18  1  0  0  0  0
 17 40  1  0  0  0  0
 18 19  2  0  0  0  0
 19 20  1  0  0  0  0
 19 21  1  0  0  0  0
 21 22  1  0  0  0  0
 21 41  1  0  0  0  0
 22 27  2  0  0  0  0
 22 23  1  0  0  0  0
 23 24  2  0  0  0  0
 23 42  1  0  0  0  0
 24 25  1  0  0  0  0
 24 43  1  0  0  0  0
 25 26  2  0  0  0  0
 25 28  1  0  0  0  0
 26 27  1  0  0  0  0
 26 44  1  0  0  0  0
 27 45  1  0  0  0  0
 28 29  1  0  0  0  0
 29 30  1  0  0  0  0
 29 46  1  0  0  0  0
 29 47  1  0  0  0  0
 30 48  1  0  0  0  0
 30 49  1  0  0  0  0
 30 56  1  0  0  0  0
 31 50  1  0  0  0  0
 31 51  1  0  0  0  0
 31 52  1  0  0  0  0
 31 56  1  0  0  0  0
 32 53  1  0  0  0  0
 32 54  1  0  0  0  0
 32 55  1  0  0  0  0
 32 56  1  0  0  0  0
 56 57  1  0  0  0  0
M  CHG  1  56   1
M  END
$$$$
ZINC03815491
  -OEChem-08230709403D

 64 68  0     0  0  0  0  0  0999 V2000
   -2.4742    7.3448   -1.1073 C   0  0  0  0  0  0  0  0  0  0  0  0
   -3.3853    6.4502   -0.3891 N   0  0  0  0  0  0  0  0  0  0  0  0
   -3.0179    5.1483   -0.1596 C   0  0  0  0  0  0  0  0  0  0  0  0
   -3.8841    4.2730    0.5308 C   0  0  0  0  0  0  0  0  0  0  0  0
   -5.1391    4.7317    0.9920 C   0  0  0  0  0  0  0  0  0  0  0  0
   -5.4970    6.0325    0.7588 C   0  0  0  0  0  0  0  0  0  0  0  0
   -4.5749    6.9141    0.0395 C   0  0  0  0  0  0  0  0  0  0  0  0
   -4.8853    8.0729   -0.1719 O   0  0  0  0  0  0  0  0  0  0  0  0
   -6.8053    6.5438    1.2299 C   0  0  0  0  0  0  0  0  0  0  0  0
   -7.9273    6.4643    0.4039 C   0  0  0  0  0  0  0  0  0  0  0  0
   -9.1450    6.9383    0.8510 C   0  0  0  0  0  0  0  0  0  0  0  0
   -9.2518    7.5000    2.1106 C   0  0  0  0  0  0  0  0  0  0  0  0
   -8.1424    7.5866    2.9323 C   0  0  0  0  0  0  0  0  0  0  0  0
   -6.9198    7.1119    2.4992 C   0  0  0  0  0  0  0  0  0  0  0  0
   -5.5284    7.2225    3.5315 Cl  0  0  0  0  0  0  0  0  0  0  0  0
   -7.7940    5.7657   -1.1797 Cl  0  0  0  0  0  0  0  0  0  0  0  0
   -3.4701    2.9498    0.7451 C   0  0  0  0  0  0  0  0  0  0  0  0
   -2.2877    2.5766    0.2926 N   0  0  0  0  0  0  0  0  0  0  0  0
   -1.4985    3.4281   -0.3533 C   0  0  0  0  0  0  0  0  0  0  0  0
   -1.8435    4.6873   -0.5750 N   0  0  0  0  0  0  0  0  0  0  0  0
   -0.2706    2.9852   -0.8054 N   0  0  0  0  0  0  0  0  0  0  0  0
    0.0770    1.6348   -0.6776 C   0  0  0  0  0  0  0  0  0  0  0  0
   -0.9027    0.6543   -0.7620 C   0  0  0  0  0  0  0  0  0  0  0  0
   -0.5590   -0.6773   -0.6363 C   0  0  0  0  0  0  0  0  0  0  0  0
    0.7645   -1.0355   -0.4262 C   0  0  0  0  0  0  0  0  0  0  0  0
    1.7438   -0.0566   -0.3418 C   0  0  0  0  0  0  0  0  0  0  0  0
    1.4017    1.2754   -0.4668 C   0  0  0  0  0  0  0  0  0  0  0  0
    1.1022   -2.3469   -0.3025 O   0  0  0  0  0  0  0  0  0  0  0  0
    2.4834   -2.6438   -0.0877 C   0  0  0  0  0  0  0  0  0  0  0  0
    2.6679   -4.1583    0.0257 C   0  0  0  0  0  0  0  0  0  0  0  0
    2.0411   -6.2182   -1.0810 C   0  0  0  0  0  0  0  0  0  0  0  0
    1.5568   -6.8091   -2.4069 C   0  0  0  0  0  0  0  0  0  0  0  0
    2.6408   -6.6183   -3.4714 C   0  0  0  0  0  0  0  0  0  0  0  0
    2.9605   -5.1265   -3.6014 C   0  0  0  0  0  0  0  0  0  0  0  0
    3.4041   -4.5844   -2.2408 C   0  0  0  0  0  0  0  0  0  0  0  0
   -2.6775    7.2884   -2.1766 H   0  0  0  0  0  0  0  0  0  0  0  0
   -2.6231    8.3681   -0.7626 H   0  0  0  0  0  0  0  0  0  0  0  0
   -1.4441    7.0436   -0.9169 H   0  0  0  0  0  0  0  0  0  0  0  0
   -5.8053    4.0663    1.5210 H   0  0  0  0  0  0  0  0  0  0  0  0
  -10.0150    6.8741    0.2142 H   0  0  0  0  0  0  0  0  0  0  0  0
  -10.2055    7.8730    2.4539 H   0  0  0  0  0  0  0  0  0  0  0  0
   -8.2323    8.0266    3.9145 H   0  0  0  0  0  0  0  0  0  0  0  0
   -4.1054    2.2513    1.2695 H   0  0  0  0  0  0  0  0  0  0  0  0
    0.3508    3.6096   -1.2113 H   0  0  0  0  0  0  0  0  0  0  0  0
   -1.9325    0.9327   -0.9303 H   0  0  0  0  0  0  0  0  0  0  0  0
   -1.3208   -1.4400   -0.7019 H   0  0  0  0  0  0  0  0  0  0  0  0
    2.7740   -0.3363   -0.1779 H   0  0  0  0  0  0  0  0  0  0  0  0
    2.1641    2.0374   -0.4007 H   0  0  0  0  0  0  0  0  0  0  0  0
    3.0704   -2.2680   -0.9258 H   0  0  0  0  0  0  0  0  0  0  0  0
    2.8185   -2.1669    0.8333 H   0  0  0  0  0  0  0  0  0  0  0  0
    3.7043   -4.3801    0.2802 H   0  0  0  0  0  0  0  0  0  0  0  0
    2.0115   -4.5470    0.8042 H   0  0  0  0  0  0  0  0  0  0  0  0
    2.9450   -6.7366   -0.7609 H   0  0  0  0  0  0  0  0  0  0  0  0
    1.2658   -6.3397   -0.3245 H   0  0  0  0  0  0  0  0  0  0  0  0
    0.6452   -6.3004   -2.7206 H   0  0  0  0  0  0  0  0  0  0  0  0
    1.3547   -7.8727   -2.2799 H   0  0  0  0  0  0  0  0  0  0  0  0
    2.2829   -6.9989   -4.4280 H   0  0  0  0  0  0  0  0  0  0  0  0
    3.5403   -7.1594   -3.1776 H   0  0  0  0  0  0  0  0  0  0  0  0
    2.0710   -4.5914   -3.9339 H   0  0  0  0  0  0  0  0  0  0  0  0
    3.7618   -4.9880   -4.3272 H   0  0  0  0  0  0  0  0  0  0  0  0
    3.6188   -3.5192   -2.3267 H   0  0  0  0  0  0  0  0  0  0  0  0
    4.3015   -5.1106   -1.9154 H   0  0  0  0  0  0  0  0  0  0  0  0
    2.3081   -4.7760   -1.2674 N   0  3  0  0  0  0  0  0  0  0  0  0
    1.4597   -4.3241   -1.6281 H   0  0  0  0  0  0  0  0  0  0  0  0
  1  2  1  0  0  0  0
  1 36  1  0  0  0  0
  1 37  1  0  0  0  0
  1 38  1  0  0  0  0
  2  7  1  0  0  0  0
  2  3  1  0  0  0  0
  3 20  2  0  0  0  0
  3  4  1  0  0  0  0
  4  5  1  0  0  0  0
  4 17  2  0  0  0  0
  5  6  2  0  0  0  0
  5 39  1  0  0  0  0
  6  7  1  0  0  0  0
  6  9  1  0  0  0  0
  7  8  2  0  0  0  0
  9 14  2  0  0  0  0
  9 10  1  0  0  0  0
 10 11  2  0  0  0  0
 10 16  1  0  0  0  0
 11 12  1  0  0  0  0
 11 40  1  0  0  0  0
 12 13  2  0  0  0  0
 12 41  1  0  0  0  0
 13 14  1  0  0  0  0
 13 42  1  0  0  0  0
 14 15  1  0  0  0  0
 17 18  1  0  0  0  0
 17 43  1  0  0  0  0
 18 19  2  0  0  0  0
 19 20  1  0  0  0  0
 19 21  1  0  0  0  0
 21 22  1  0  0  0  0
 21 44  1  0  0  0  0
 22 27  2  0  0  0  0
 22 23  1  0  0  0  0
 23 24  2  0  0  0  0
 23 45  1  0  0  0  0
 24 25  1  0  0  0  0
 24 46  1  0  0  0  0
 25 26  2  0  0  0  0
 25 28  1  0  0  0  0
 26 27  1  0  0  0  0
 26 47  1  0  0  0  0
 27 48  1  0  0  0  0
 28 29  1  0  0  0  0
 29 30  1  0  0  0  0
 29 49  1  0  0  0  0
 29 50  1  0  0  0  0
 30 51  1  0  0  0  0
 30 52  1  0  0  0  0
 30 63  1  0  0  0  0
 31 32  1  0  0  0  0
 31 53  1  0  0  0  0
 31 54  1  0  0  0  0
 31 63  1  0  0  0  0
 32 33  1  0  0  0  0
 32 55  1  0  0  0  0
 32 56  1  0  0  0  0
 33 34  1  0  0  0  0
 33 57  1  0  0  0  0
 33 58  1  0  0  0  0
 34 35  1  0  0  0  0
 34 59  1  0  0  0  0
 34 60  1  0  0  0  0
 35 61  1  0  0  0  0
 35 62  1  0  0  0  0
 35 63  1  0  0  0  0
 63 64  1  0  0  0  0
M  CHG  1  63   1
M  END
$$$$
ZINC03815492
  -OEChem-08230709403D

 66 69  0     0  0  0  0  0  0999 V2000
   -0.8153   -7.4496   -0.3659 C   0  0  0  0  0  0  0  0  0  0  0  0
    0.3035   -7.0440   -1.3276 C   0  0  0  0  0  0  0  0  0  0  0  0
    0.6749   -5.6437   -1.0839 N   0  3  0  0  0  0  0  0  0  0  0  0
    1.7490   -5.2543   -2.0072 C   0  0  0  0  0  0  0  0  0  0  0  0
   -0.4946   -4.7819   -1.3018 C   0  0  0  0  0  0  0  0  0  0  0  0
   -1.0802   -5.0578   -2.6882 C   0  0  0  0  0  0  0  0  0  0  0  0
    1.1416   -5.4948    0.3010 C   0  0  0  0  0  0  0  0  0  0  0  0
    1.4765   -4.0266    0.5713 C   0  0  0  0  0  0  0  0  0  0  0  0
    0.2727   -3.2565    0.5757 O   0  0  0  0  0  0  0  0  0  0  0  0
    0.3948   -1.9214    0.8033 C   0  0  0  0  0  0  0  0  0  0  0  0
   -0.7339   -1.1152    0.8211 C   0  0  0  0  0  0  0  0  0  0  0  0
   -0.6107    0.2408    1.0512 C   0  0  0  0  0  0  0  0  0  0  0  0
    0.6435    0.7973    1.2653 C   0  0  0  0  0  0  0  0  0  0  0  0
    1.7729   -0.0106    1.2478 C   0  0  0  0  0  0  0  0  0  0  0  0
    1.6480   -1.3664    1.0171 C   0  0  0  0  0  0  0  0  0  0  0  0
    0.7694    2.1722    1.4983 N   0  0  0  0  0  0  0  0  0  0  0  0
   -0.2152    2.8480    2.1926 C   0  0  0  0  0  0  0  0  0  0  0  0
   -1.2126    2.1526    2.7287 N   0  0  0  0  0  0  0  0  0  0  0  0
   -2.1778    2.7502    3.4014 C   0  0  0  0  0  0  0  0  0  0  0  0
   -2.1334    4.1457    3.5430 C   0  0  0  0  0  0  0  0  0  0  0  0
   -3.1380    4.8421    4.2528 C   0  0  0  0  0  0  0  0  0  0  0  0
   -3.0496    6.2040    4.3635 C   0  0  0  0  0  0  0  0  0  0  0  0
   -1.9208    6.9037    3.7462 C   0  0  0  0  0  0  0  0  0  0  0  0
   -1.8342    8.1151    3.8401 O   0  0  0  0  0  0  0  0  0  0  0  0
   -0.9778    6.2144    3.0756 N   0  0  0  0  0  0  0  0  0  0  0  0
   -1.0582    4.8496    2.9596 C   0  0  0  0  0  0  0  0  0  0  0  0
   -0.1276    4.1645    2.3041 N   0  0  0  0  0  0  0  0  0  0  0  0
    0.1454    6.9291    2.4642 C   0  0  0  0  0  0  0  0  0  0  0  0
   -4.0867    6.9629    5.1006 C   0  0  0  0  0  0  0  0  0  0  0  0
   -5.2084    7.4504    4.4288 C   0  0  0  0  0  0  0  0  0  0  0  0
   -6.1738    8.1534    5.1227 C   0  0  0  0  0  0  0  0  0  0  0  0
   -6.0257    8.3829    6.4788 C   0  0  0  0  0  0  0  0  0  0  0  0
   -4.9136    7.9069    7.1496 C   0  0  0  0  0  0  0  0  0  0  0  0
   -3.9433    7.1983    6.4685 C   0  0  0  0  0  0  0  0  0  0  0  0
   -2.5481    6.6023    7.3122 Cl  0  0  0  0  0  0  0  0  0  0  0  0
   -5.3928    7.1692    2.7257 Cl  0  0  0  0  0  0  0  0  0  0  0  0
   -0.4690   -7.3391    0.6617 H   0  0  0  0  0  0  0  0  0  0  0  0
   -1.6830   -6.8102   -0.5277 H   0  0  0  0  0  0  0  0  0  0  0  0
   -1.0908   -8.4886   -0.5467 H   0  0  0  0  0  0  0  0  0  0  0  0
   -0.0428   -7.1545   -2.3552 H   0  0  0  0  0  0  0  0  0  0  0  0
    1.1713   -7.6835   -1.1658 H   0  0  0  0  0  0  0  0  0  0  0  0
    2.5994   -5.9239   -1.8785 H   0  0  0  0  0  0  0  0  0  0  0  0
    1.3874   -5.3193   -3.0334 H   0  0  0  0  0  0  0  0  0  0  0  0
    2.0573   -4.2306   -1.7947 H   0  0  0  0  0  0  0  0  0  0  0  0
   -1.2470   -4.9912   -0.5414 H   0  0  0  0  0  0  0  0  0  0  0  0
   -0.1929   -3.7366   -1.2363 H   0  0  0  0  0  0  0  0  0  0  0  0
   -0.3278   -4.8485   -3.4486 H   0  0  0  0  0  0  0  0  0  0  0  0
   -1.3819   -6.1031   -2.7537 H   0  0  0  0  0  0  0  0  0  0  0  0
   -1.9479   -4.4183   -2.8499 H   0  0  0  0  0  0  0  0  0  0  0  0
    2.0326   -6.1044    0.4517 H   0  0  0  0  0  0  0  0  0  0  0  0
    0.3584   -5.8208    0.9854 H   0  0  0  0  0  0  0  0  0  0  0  0
    2.1419   -3.6562   -0.2086 H   0  0  0  0  0  0  0  0  0  0  0  0
    1.9678   -3.9384    1.5402 H   0  0  0  0  0  0  0  0  0  0  0  0
   -1.7092   -1.5481    0.6546 H   0  0  0  0  0  0  0  0  0  0  0  0
   -1.4890    0.8692    1.0603 H   0  0  0  0  0  0  0  0  0  0  0  0
    2.7486    0.4213    1.4146 H   0  0  0  0  0  0  0  0  0  0  0  0
    2.5262   -1.9948    1.0034 H   0  0  0  0  0  0  0  0  0  0  0  0
    1.5479    2.6501    1.1721 H   0  0  0  0  0  0  0  0  0  0  0  0
   -2.9846    2.1774    3.8343 H   0  0  0  0  0  0  0  0  0  0  0  0
   -3.9630    4.3082    4.7008 H   0  0  0  0  0  0  0  0  0  0  0  0
   -0.1158    7.2120    1.4444 H   0  0  0  0  0  0  0  0  0  0  0  0
    0.3652    7.8251    3.0447 H   0  0  0  0  0  0  0  0  0  0  0  0
    1.0225    6.2821    2.4485 H   0  0  0  0  0  0  0  0  0  0  0  0
   -7.0444    8.5277    4.6048 H   0  0  0  0  0  0  0  0  0  0  0  0
   -6.7816    8.9364    7.0160 H   0  0  0  0  0  0  0  0  0  0  0  0
   -4.8036    8.0901    8.2083 H   0  0  0  0  0  0  0  0  0  0  0  0
  1  2  1  0  0  0  0
  1 37  1  0  0  0  0
  1 38  1  0  0  0  0
  1 39  1  0  0  0  0
  2  3  1  0  0  0  0
  2 40  1  0  0  0  0
  2 41  1  0  0  0  0
  3  4  1  0  0  0  0
  3  5  1  0  0  0  0
  3  7  1  0  0  0  0
  4 42  1  0  0  0  0
  4 43  1  0  0  0  0
  4 44  1  0  0  0  0
  5  6  1  0  0  0  0
  5 45  1  0  0  0  0
  5 46  1  0  0  0  0
  6 47  1  0  0  0  0
  6 48  1  0  0  0  0
  6 49  1  0  0  0  0
  7  8  1  0  0  0  0
  7 50  1  0  0  0  0
  7 51  1  0  0  0  0
  8  9  1  0  0  0  0
  8 52  1  0  0  0  0
  8 53  1  0  0  0  0
  9 10  1  0  0  0  0
 10 15  2  0  0  0  0
 10 11  1  0  0  0  0
 11 12  2  0  0  0  0
 11 54  1  0  0  0  0
 12 13  1  0  0  0  0
 12 55  1  0  0  0  0
 13 14  2  0  0  0  0
 13 16  1  0  0  0  0
 14 15  1  0  0  0  0
 14 56  1  0  0  0  0
 15 57  1  0  0  0  0
 16 17  1  0  0  0  0
 16 58  1  0  0  0  0
 17 27  2  0  0  0  0
 17 18  1  0  0  0  0
 18 19  2  0  0  0  0
 19 20  1  0  0  0  0
 19 59  1  0  0  0  0
 20 26  2  0  0  0  0
 20 21  1  0  0  0  0
 21 22  2  0  0  0  0
 21 60  1  0  0  0  0
 22 23  1  0  0  0  0
 22 29  1  0  0  0  0
 23 24  2  0  0  0  0
 23 25  1  0  0  0  0
 25 26  1  0  0  0  0
 25 28  1  0  0  0  0
 26 27  1  0  0  0  0
 28 61  1  0  0  0  0
 28 62  1  0  0  0  0
 28 63  1  0  0  0  0
 29 34  2  0  0  0  0
 29 30  1  0  0  0  0
 30 31  2  0  0  0  0
 30 36  1  0  0  0  0
 31 32  1  0  0  0  0
 31 64  1  0  0  0  0
 32 33  2  0  0  0  0
 32 65  1  0  0  0  0
 33 34  1  0  0  0  0
 33 66  1  0  0  0  0
 34 35  1  0  0  0  0
M  CHG  1   3   1
M  END
$$$$
ZINC03815493
  -OEChem-08230709403D

 60 64  0     0  0  0  0  0  0999 V2000
   -3.1412    0.0541   -6.3155 C   0  0  0  0  0  0  0  0  0  0  0  0
   -3.6737    0.6221   -7.5565 N   0  0  0  0  0  0  0  0  0  0  0  0
   -3.8041    1.9861   -7.6820 C   0  0  0  0  0  0  0  0  0  0  0  0
   -3.4382    2.8395   -6.6479 C   0  0  0  0  0  0  0  0  0  0  0  0
   -3.5893    4.2079   -6.8228 C   0  0  0  0  0  0  0  0  0  0  0  0
   -4.0793    4.7094   -7.9519 N   0  0  0  0  0  0  0  0  0  0  0  0
   -4.4348    3.9457   -8.9616 C   0  0  0  0  0  0  0  0  0  0  0  0
   -4.3157    2.5532   -8.8698 C   0  0  0  0  0  0  0  0  0  0  0  0
   -4.6986    1.7157   -9.9440 C   0  0  0  0  0  0  0  0  0  0  0  0
   -4.5658    0.3602   -9.8115 C   0  0  0  0  0  0  0  0  0  0  0  0
   -4.0322   -0.1955   -8.5658 C   0  0  0  0  0  0  0  0  0  0  0  0
   -3.9117   -1.4014   -8.4420 O   0  0  0  0  0  0  0  0  0  0  0  0
   -4.9597   -0.5394  -10.9207 C   0  0  0  0  0  0  0  0  0  0  0  0
   -6.2623   -1.0347  -10.9924 C   0  0  0  0  0  0  0  0  0  0  0  0
   -6.6243   -1.8691  -12.0318 C   0  0  0  0  0  0  0  0  0  0  0  0
   -5.6960   -2.2225  -12.9945 C   0  0  0  0  0  0  0  0  0  0  0  0
   -4.4017   -1.7392  -12.9264 C   0  0  0  0  0  0  0  0  0  0  0  0
   -4.0281   -0.8998  -11.8952 C   0  0  0  0  0  0  0  0  0  0  0  0
   -2.4031   -0.2948  -11.8113 Cl  0  0  0  0  0  0  0  0  0  0  0  0
   -7.4270   -0.5978   -9.7815 Cl  0  0  0  0  0  0  0  0  0  0  0  0
   -3.2271    5.0690   -5.7968 N   0  0  0  0  0  0  0  0  0  0  0  0
   -2.8766    4.5551   -4.5423 C   0  0  0  0  0  0  0  0  0  0  0  0
   -1.7840    5.0740   -3.8599 C   0  0  0  0  0  0  0  0  0  0  0  0
   -1.4387    4.5675   -2.6227 C   0  0  0  0  0  0  0  0  0  0  0  0
   -2.1839    3.5392   -2.0607 C   0  0  0  0  0  0  0  0  0  0  0  0
   -3.2730    3.0164   -2.7456 C   0  0  0  0  0  0  0  0  0  0  0  0
   -3.6218    3.5267   -3.9803 C   0  0  0  0  0  0  0  0  0  0  0  0
   -1.8338    3.0258   -0.8067 N   0  0  0  0  0  0  0  0  0  0  0  0
   -2.7503    1.9501   -0.4035 C   0  0  0  0  0  0  0  0  0  0  0  0
   -2.2877    1.3633    0.9322 C   0  0  0  0  0  0  0  0  0  0  0  0
   -1.3344    3.5029    1.5420 C   0  0  0  0  0  0  0  0  0  0  0  0
   -1.7970    4.0898    0.2063 C   0  0  0  0  0  0  0  0  0  0  0  0
   -1.8828    1.8878    3.2615 C   0  0  0  0  0  0  0  0  0  0  0  0
   -3.9612   -0.1426   -5.6248 H   0  0  0  0  0  0  0  0  0  0  0  0
   -2.6208   -0.8778   -6.5364 H   0  0  0  0  0  0  0  0  0  0  0  0
   -2.4455    0.7601   -5.8620 H   0  0  0  0  0  0  0  0  0  0  0  0
   -3.0425    2.4444   -5.7238 H   0  0  0  0  0  0  0  0  0  0  0  0
   -4.8244    4.3937   -9.8638 H   0  0  0  0  0  0  0  0  0  0  0  0
   -5.0908    2.1406  -10.8562 H   0  0  0  0  0  0  0  0  0  0  0  0
   -7.6334   -2.2496  -12.0909 H   0  0  0  0  0  0  0  0  0  0  0  0
   -5.9830   -2.8789  -13.8027 H   0  0  0  0  0  0  0  0  0  0  0  0
   -3.6818   -2.0186  -13.6814 H   0  0  0  0  0  0  0  0  0  0  0  0
   -3.2167    6.0270   -5.9486 H   0  0  0  0  0  0  0  0  0  0  0  0
   -1.2047    5.8739   -4.2967 H   0  0  0  0  0  0  0  0  0  0  0  0
   -0.5892    4.9713   -2.0919 H   0  0  0  0  0  0  0  0  0  0  0  0
   -3.8497    2.2135   -2.3107 H   0  0  0  0  0  0  0  0  0  0  0  0
   -4.4717    3.1234   -4.5108 H   0  0  0  0  0  0  0  0  0  0  0  0
   -2.7506    1.1687   -1.1634 H   0  0  0  0  0  0  0  0  0  0  0  0
   -3.7576    2.3523   -0.2946 H   0  0  0  0  0  0  0  0  0  0  0  0
   -2.9824    0.5848    1.2475 H   0  0  0  0  0  0  0  0  0  0  0  0
   -1.2914    0.9365    0.8163 H   0  0  0  0  0  0  0  0  0  0  0  0
   -0.3272    3.1008    1.4331 H   0  0  0  0  0  0  0  0  0  0  0  0
   -1.3338    4.2845    2.3018 H   0  0  0  0  0  0  0  0  0  0  0  0
   -1.1023    4.8683   -0.1090 H   0  0  0  0  0  0  0  0  0  0  0  0
   -2.7934    4.5165    0.3219 H   0  0  0  0  0  0  0  0  0  0  0  0
   -0.8969    1.4266    3.2026 H   0  0  0  0  0  0  0  0  0  0  0  0
   -1.8627    2.6960    3.9926 H   0  0  0  0  0  0  0  0  0  0  0  0
   -2.6158    1.1407    3.5658 H   0  0  0  0  0  0  0  0  0  0  0  0
   -2.2763    2.4379    1.9467 N   0  3  0  0  0  0  0  0  0  0  0  0
   -3.2195    2.8369    2.0209 H   0  0  0  0  0  0  0  0  0  0  0  0
  1  2  1  0  0  0  0
  1 34  1  0  0  0  0
  1 35  1  0  0  0  0
  1 36  1  0  0  0  0
  2 11  1  0  0  0  0
  2  3  1  0  0  0  0
  3  8  2  0  0  0  0
  3  4  1  0  0  0  0
  4  5  2  0  0  0  0
  4 37  1  0  0  0  0
  5  6  1  0  0  0  0
  5 21  1  0  0  0  0
  6  7  2  0  0  0  0
  7  8  1  0  0  0  0
  7 38  1  0  0  0  0
  8  9  1  0  0  0  0
  9 10  2  0  0  0  0
  9 39  1  0  0  0  0
 10 11  1  0  0  0  0
 10 13  1  0  0  0  0
 11 12  2  0  0  0  0
 13 18  2  0  0  0  0
 13 14  1  0  0  0  0
 14 15  2  0  0  0  0
 14 20  1  0  0  0  0
 15 16  1  0  0  0  0
 15 40  1  0  0  0  0
 16 17  2  0  0  0  0
 16 41  1  0  0  0  0
 17 18  1  0  0  0  0
 17 42  1  0  0  0  0
 18 19  1  0  0  0  0
 21 22  1  0  0  0  0
 21 43  1  0  0  0  0
 22 27  2  0  0  0  0
 22 23  1  0  0  0  0
 23 24  2  0  0  0  0
 23 44  1  0  0  0  0
 24 25  1  0  0  0  0
 24 45  1  0  0  0  0
 25 26  2  0  0  0  0
 25 28  1  0  0  0  0
 26 27  1  0  0  0  0
 26 46  1  0  0  0  0
 27 47  1  0  0  0  0
 28 32  1  0  0  0  0
 28 29  1  0  0  0  0
 29 30  1  0  0  0  0
 29 48  1  0  0  0  0
 29 49  1  0  0  0  0
 30 50  1  0  0  0  0
 30 51  1  0  0  0  0
 30 59  1  0  0  0  0
 31 32  1  0  0  0  0
 31 52  1  0  0  0  0
 31 53  1  0  0  0  0
 31 59  1  0  0  0  0
 32 54  1  0  0  0  0
 32 55  1  0  0  0  0
 33 56  1  0  0  0  0
 33 57  1  0  0  0  0
 33 58  1  0  0  0  0
 33 59  1  0  0  0  0
 59 60  1  0  0  0  0
M  CHG  1  59   1
M  END
$$$$
ZINC03815495
  -OEChem-08230709403D

 60 63  0     0  0  0  0  0  0999 V2000
   -3.5289   -2.5681    0.7066 C   0  0  0  0  0  0  0  0  0  0  0  0
   -2.4570   -2.8447   -0.3495 C   0  0  0  0  0  0  0  0  0  0  0  0
   -0.7459   -3.6183    1.1790 C   0  0  0  0  0  0  0  0  0  0  0  0
    0.3538   -3.0847    2.0992 C   0  0  0  0  0  0  0  0  0  0  0  0
   -0.1211   -2.4397   -0.8417 C   0  0  0  0  0  0  0  0  0  0  0  0
    0.9654   -1.6424   -0.3665 O   0  0  0  0  0  0  0  0  0  0  0  0
    0.7677   -0.2981   -0.3134 C   0  0  0  0  0  0  0  0  0  0  0  0
    1.7489    0.5265    0.2173 C   0  0  0  0  0  0  0  0  0  0  0  0
    1.5485    1.8917    0.2724 C   0  0  0  0  0  0  0  0  0  0  0  0
    0.3646    2.4391   -0.2041 C   0  0  0  0  0  0  0  0  0  0  0  0
   -0.6170    1.6130   -0.7356 C   0  0  0  0  0  0  0  0  0  0  0  0
   -0.4152    0.2480   -0.7896 C   0  0  0  0  0  0  0  0  0  0  0  0
    0.1605    3.8232   -0.1481 N   0  0  0  0  0  0  0  0  0  0  0  0
    1.2285    4.6857   -0.3022 C   0  0  0  0  0  0  0  0  0  0  0  0
    2.4290    4.1780   -0.5610 N   0  0  0  0  0  0  0  0  0  0  0  0
    3.4815    4.9585   -0.7169 C   0  0  0  0  0  0  0  0  0  0  0  0
    3.3109    6.3468   -0.6039 C   0  0  0  0  0  0  0  0  0  0  0  0
    4.4002    7.2338   -0.7611 C   0  0  0  0  0  0  0  0  0  0  0  0
    4.1823    8.5803   -0.6418 C   0  0  0  0  0  0  0  0  0  0  0  0
    2.8312    9.0674   -0.3554 C   0  0  0  0  0  0  0  0  0  0  0  0
    2.6284   10.2637   -0.2481 O   0  0  0  0  0  0  0  0  0  0  0  0
    1.8117    8.1992   -0.2105 N   0  0  0  0  0  0  0  0  0  0  0  0
    2.0207    6.8483   -0.3282 C   0  0  0  0  0  0  0  0  0  0  0  0
    1.0175    5.9881   -0.1919 N   0  0  0  0  0  0  0  0  0  0  0  0
    0.4659    8.7025    0.0754 C   0  0  0  0  0  0  0  0  0  0  0  0
    5.3033    9.5358   -0.8007 C   0  0  0  0  0  0  0  0  0  0  0  0
    6.0560    9.9236    0.3085 C   0  0  0  0  0  0  0  0  0  0  0  0
    7.1025   10.8115    0.1528 C   0  0  0  0  0  0  0  0  0  0  0  0
    7.3990   11.3234   -1.0975 C   0  0  0  0  0  0  0  0  0  0  0  0
    6.6535   10.9471   -2.2003 C   0  0  0  0  0  0  0  0  0  0  0  0
    5.6074   10.0564   -2.0592 C   0  0  0  0  0  0  0  0  0  0  0  0
    4.6726    9.5859   -3.4442 Cl  0  0  0  0  0  0  0  0  0  0  0  0
    5.6813    9.2874    1.8797 Cl  0  0  0  0  0  0  0  0  0  0  0  0
   -3.3479   -3.1938    1.5806 H   0  0  0  0  0  0  0  0  0  0  0  0
   -3.4903   -1.5182    0.9972 H   0  0  0  0  0  0  0  0  0  0  0  0
   -4.5121   -2.7951    0.2945 H   0  0  0  0  0  0  0  0  0  0  0  0
   -2.6214   -2.1986   -1.2119 H   0  0  0  0  0  0  0  0  0  0  0  0
   -2.5143   -3.8877   -0.6607 H   0  0  0  0  0  0  0  0  0  0  0  0
   -1.6138   -3.8997    1.7753 H   0  0  0  0  0  0  0  0  0  0  0  0
   -0.3770   -4.4909    0.6400 H   0  0  0  0  0  0  0  0  0  0  0  0
    0.6689   -3.8725    2.7835 H   0  0  0  0  0  0  0  0  0  0  0  0
    1.2050   -2.7626    1.4994 H   0  0  0  0  0  0  0  0  0  0  0  0
   -0.0290   -2.2390    2.6704 H   0  0  0  0  0  0  0  0  0  0  0  0
   -0.5705   -1.9601   -1.7113 H   0  0  0  0  0  0  0  0  0  0  0  0
    0.2474   -3.4267   -1.1210 H   0  0  0  0  0  0  0  0  0  0  0  0
    2.6696    0.1006    0.5878 H   0  0  0  0  0  0  0  0  0  0  0  0
    2.3106    2.5330    0.6900 H   0  0  0  0  0  0  0  0  0  0  0  0
   -1.5379    2.0380   -1.1067 H   0  0  0  0  0  0  0  0  0  0  0  0
   -1.1785   -0.3946   -1.2030 H   0  0  0  0  0  0  0  0  0  0  0  0
   -0.7309    4.1764   -0.0012 H   0  0  0  0  0  0  0  0  0  0  0  0
    4.4536    4.5377   -0.9274 H   0  0  0  0  0  0  0  0  0  0  0  0
    5.3895    6.8551   -0.9717 H   0  0  0  0  0  0  0  0  0  0  0  0
    0.3244    8.7692    1.1541 H   0  0  0  0  0  0  0  0  0  0  0  0
    0.3456    9.6907   -0.3686 H   0  0  0  0  0  0  0  0  0  0  0  0
   -0.2737    8.0221   -0.3467 H   0  0  0  0  0  0  0  0  0  0  0  0
    7.6885   11.1093    1.0098 H   0  0  0  0  0  0  0  0  0  0  0  0
    8.2160   12.0203   -1.2133 H   0  0  0  0  0  0  0  0  0  0  0  0
    6.8896   11.3510   -3.1737 H   0  0  0  0  0  0  0  0  0  0  0  0
   -1.1305   -2.5503    0.2323 N   0  3  0  0  0  0  0  0  0  0  0  0
   -1.1787   -1.6579    0.7379 H   0  0  0  0  0  0  0  0  0  0  0  0
  1  2  1  0  0  0  0
  1 34  1  0  0  0  0
  1 35  1  0  0  0  0
  1 36  1  0  0  0  0
  2 37  1  0  0  0  0
  2 38  1  0  0  0  0
  2 59  1  0  0  0  0
  3  4  1  0  0  0  0
  3 39  1  0  0  0  0
  3 40  1  0  0  0  0
  3 59  1  0  0  0  0
  4 41  1  0  0  0  0
  4 42  1  0  0  0  0
  4 43  1  0  0  0  0
  5  6  1  0  0  0  0
  5 44  1  0  0  0  0
  5 45  1  0  0  0  0
  5 59  1  0  0  0  0
  6  7  1  0  0  0  0
  7 12  2  0  0  0  0
  7  8  1  0  0  0  0
  8  9  2  0  0  0  0
  8 46  1  0  0  0  0
  9 10  1  0  0  0  0
  9 47  1  0  0  0  0
 10 11  2  0  0  0  0
 10 13  1  0  0  0  0
 11 12  1  0  0  0  0
 11 48  1  0  0  0  0
 12 49  1  0  0  0  0
 13 14  1  0  0  0  0
 13 50  1  0  0  0  0
 14 24  2  0  0  0  0
 14 15  1  0  0  0  0
 15 16  2  0  0  0  0
 16 17  1  0  0  0  0
 16 51  1  0  0  0  0
 17 23  2  0  0  0  0
 17 18  1  0  0  0  0
 18 19  2  0  0  0  0
 18 52  1  0  0  0  0
 19 20  1  0  0  0  0
 19 26  1  0  0  0  0
 20 21  2  0  0  0  0
 20 22  1  0  0  0  0
 22 23  1  0  0  0  0
 22 25  1  0  0  0  0
 23 24  1  0  0  0  0
 25 53  1  0  0  0  0
 25 54  1  0  0  0  0
 25 55  1  0  0  0  0
 26 31  2  0  0  0  0
 26 27  1  0  0  0  0
 27 28  2  0  0  0  0
 27 33  1  0  0  0  0
 28 29  1  0  0  0  0
 28 56  1  0  0  0  0
 29 30  2  0  0  0  0
 29 57  1  0  0  0  0
 30 31  1  0  0  0  0
 30 58  1  0  0  0  0
 31 32  1  0  0  0  0
 59 60  1  0  0  0  0
M  CHG  1  59   1
M  END
$$$$
ZINC03815496
  -OEChem-08230709403D

 63 66  0     0  0  0  0  0  0999 V2000
    3.3701   -6.4009   -1.6428 C   0  0  0  0  0  0  0  0  0  0  0  0
    2.0772   -5.6702   -2.0107 C   0  0  0  0  0  0  0  0  0  0  0  0
    2.2699   -4.2228   -1.8496 N   0  3  0  0  0  0  0  0  0  0  0  0
    1.0167   -3.5240   -2.1643 C   0  0  0  0  0  0  0  0  0  0  0  0
    0.5330   -3.9449   -3.5534 C   0  0  0  0  0  0  0  0  0  0  0  0
    2.6579   -3.9319   -0.4629 C   0  0  0  0  0  0  0  0  0  0  0  0
    2.8370   -2.4224   -0.2895 C   0  0  0  0  0  0  0  0  0  0  0  0
    1.5656   -1.7774   -0.3882 O   0  0  0  0  0  0  0  0  0  0  0  0
    1.5479   -0.4242   -0.2556 C   0  0  0  0  0  0  0  0  0  0  0  0
    0.3470    0.2650   -0.3408 C   0  0  0  0  0  0  0  0  0  0  0  0
    0.3283    1.6393   -0.2072 C   0  0  0  0  0  0  0  0  0  0  0  0
    1.5119    2.3313    0.0132 C   0  0  0  0  0  0  0  0  0  0  0  0
    2.7135    1.6406    0.0988 C   0  0  0  0  0  0  0  0  0  0  0  0
    2.7306    0.2663   -0.0355 C   0  0  0  0  0  0  0  0  0  0  0  0
    1.4938    3.7249    0.1484 N   0  0  0  0  0  0  0  0  0  0  0  0
    0.4203    4.3459    0.7568 C   0  0  0  0  0  0  0  0  0  0  0  0
   -0.5250    3.5935    1.3101 N   0  0  0  0  0  0  0  0  0  0  0  0
   -1.5707    4.1372    1.9036 C   0  0  0  0  0  0  0  0  0  0  0  0
   -1.6691    5.5366    1.9415 C   0  0  0  0  0  0  0  0  0  0  0  0
   -2.7651    6.1772    2.5632 C   0  0  0  0  0  0  0  0  0  0  0  0
   -2.8152    7.5454    2.5742 C   0  0  0  0  0  0  0  0  0  0  0  0
   -1.7364    8.3095    1.9441 C   0  0  0  0  0  0  0  0  0  0  0  0
   -1.7728    9.5270    1.9497 O   0  0  0  0  0  0  0  0  0  0  0  0
   -0.7039    7.6726    1.3589 N   0  0  0  0  0  0  0  0  0  0  0  0
   -0.6453    6.3019    1.3430 C   0  0  0  0  0  0  0  0  0  0  0  0
    0.3738    5.6690    0.7721 N   0  0  0  0  0  0  0  0  0  0  0  0
    0.3677    8.4514    0.7333 C   0  0  0  0  0  0  0  0  0  0  0  0
   -3.9509    8.2466    3.2174 C   0  0  0  0  0  0  0  0  0  0  0  0
   -5.0868    8.5694    2.4739 C   0  0  0  0  0  0  0  0  0  0  0  0
   -6.1437    9.2193    3.0806 C   0  0  0  0  0  0  0  0  0  0  0  0
   -6.0741    9.5587    4.4198 C   0  0  0  0  0  0  0  0  0  0  0  0
   -4.9488    9.2463    5.1612 C   0  0  0  0  0  0  0  0  0  0  0  0
   -3.8869    8.5922    4.5678 C   0  0  0  0  0  0  0  0  0  0  0  0
   -2.4753    8.2016    5.4998 Cl  0  0  0  0  0  0  0  0  0  0  0  0
   -5.1734    8.1503    0.7915 Cl  0  0  0  0  0  0  0  0  0  0  0  0
    3.3235   -3.7672   -2.7566 O   0  5  0  0  0  0  0  0  0  0  0  0
    4.1948   -5.9989   -2.2313 H   0  0  0  0  0  0  0  0  0  0  0  0
    3.5780   -6.2598   -0.5822 H   0  0  0  0  0  0  0  0  0  0  0  0
    3.2586   -7.4647   -1.8527 H   0  0  0  0  0  0  0  0  0  0  0  0
    1.2721   -6.0046   -1.3565 H   0  0  0  0  0  0  0  0  0  0  0  0
    1.8183   -5.8892   -3.0467 H   0  0  0  0  0  0  0  0  0  0  0  0
    0.2607   -3.7819   -1.4227 H   0  0  0  0  0  0  0  0  0  0  0  0
    1.1875   -2.4475   -2.1498 H   0  0  0  0  0  0  0  0  0  0  0  0
   -0.3969   -3.4264   -3.7869 H   0  0  0  0  0  0  0  0  0  0  0  0
    1.2890   -3.6869   -4.2950 H   0  0  0  0  0  0  0  0  0  0  0  0
    0.3622   -5.0214   -3.5679 H   0  0  0  0  0  0  0  0  0  0  0  0
    3.5961   -4.4377   -0.2344 H   0  0  0  0  0  0  0  0  0  0  0  0
    1.8802   -4.2857    0.2138 H   0  0  0  0  0  0  0  0  0  0  0  0
    3.4983   -2.0430   -1.0685 H   0  0  0  0  0  0  0  0  0  0  0  0
    3.2730   -2.2182    0.6884 H   0  0  0  0  0  0  0  0  0  0  0  0
   -0.5734   -0.2734   -0.5122 H   0  0  0  0  0  0  0  0  0  0  0  0
   -0.6061    2.1762   -0.2784 H   0  0  0  0  0  0  0  0  0  0  0  0
    3.6344    2.1780    0.2705 H   0  0  0  0  0  0  0  0  0  0  0  0
    3.6651   -0.2710    0.0311 H   0  0  0  0  0  0  0  0  0  0  0  0
    2.2350    4.2542   -0.1852 H   0  0  0  0  0  0  0  0  0  0  0  0
   -2.3343    3.5184    2.3511 H   0  0  0  0  0  0  0  0  0  0  0  0
   -3.5513    5.5961    3.0222 H   0  0  0  0  0  0  0  0  0  0  0  0
    0.1217    8.6330   -0.3129 H   0  0  0  0  0  0  0  0  0  0  0  0
    0.4749    9.4041    1.2520 H   0  0  0  0  0  0  0  0  0  0  0  0
    1.3039    7.8966    0.7954 H   0  0  0  0  0  0  0  0  0  0  0  0
   -7.0251    9.4661    2.5074 H   0  0  0  0  0  0  0  0  0  0  0  0
   -6.9018   10.0702    4.8885 H   0  0  0  0  0  0  0  0  0  0  0  0
   -4.9004    9.5146    6.2062 H   0  0  0  0  0  0  0  0  0  0  0  0
  1  2  1  0  0  0  0
  1 37  1  0  0  0  0
  1 38  1  0  0  0  0
  1 39  1  0  0  0  0
  2  3  1  0  0  0  0
  2 40  1  0  0  0  0
  2 41  1  0  0  0  0
  3  4  1  0  0  0  0
  3  6  1  0  0  0  0
  3 36  1  0  0  0  0
  4  5  1  0  0  0  0
  4 42  1  0  0  0  0
  4 43  1  0  0  0  0
  5 44  1  0  0  0  0
  5 45  1  0  0  0  0
  5 46  1  0  0  0  0
  6  7  1  0  0  0  0
  6 47  1  0  0  0  0
  6 48  1  0  0  0  0
  7  8  1  0  0  0  0
  7 49  1  0  0  0  0
  7 50  1  0  0  0  0
  8  9  1  0  0  0  0
  9 14  2  0  0  0  0
  9 10  1  0  0  0  0
 10 11  2  0  0  0  0
 10 51  1  0  0  0  0
 11 12  1  0  0  0  0
 11 52  1  0  0  0  0
 12 13  2  0  0  0  0
 12 15  1  0  0  0  0
 13 14  1  0  0  0  0
 13 53  1  0  0  0  0
 14 54  1  0  0  0  0
 15 16  1  0  0  0  0
 15 55  1  0  0  0  0
 16 26  2  0  0  0  0
 16 17  1  0  0  0  0
 17 18  2  0  0  0  0
 18 19  1  0  0  0  0
 18 56  1  0  0  0  0
 19 25  2  0  0  0  0
 19 20  1  0  0  0  0
 20 21  2  0  0  0  0
 20 57  1  0  0  0  0
 21 22  1  0  0  0  0
 21 28  1  0  0  0  0
 22 23  2  0  0  0  0
 22 24  1  0  0  0  0
 24 25  1  0  0  0  0
 24 27  1  0  0  0  0
 25 26  1  0  0  0  0
 27 58  1  0  0  0  0
 27 59  1  0  0  0  0
 27 60  1  0  0  0  0
 28 33  2  0  0  0  0
 28 29  1  0  0  0  0
 29 30  2  0  0  0  0
 29 35  1  0  0  0  0
 30 31  1  0  0  0  0
 30 61  1  0  0  0  0
 31 32  2  0  0  0  0
 31 62  1  0  0  0  0
 32 33  1  0  0  0  0
 32 63  1  0  0  0  0
 33 34  1  0  0  0  0
M  CHG  2   3   1  36  -1
M  END
$$$$
ZINC03815497
  -OEChem-08230709403D

 63 67  0     0  0  0  0  0  0999 V2000
   -4.6629    5.0294   10.9842 C   0  0  0  0  0  0  0  0  0  0  0  0
   -4.8082    3.5759   10.8730 N   0  0  0  0  0  0  0  0  0  0  0  0
   -4.2124    2.9117    9.8308 C   0  0  0  0  0  0  0  0  0  0  0  0
   -4.3425    1.5112    9.7090 C   0  0  0  0  0  0  0  0  0  0  0  0
   -5.0891    0.7807   10.6615 C   0  0  0  0  0  0  0  0  0  0  0  0
   -5.6797    1.4520   11.6984 C   0  0  0  0  0  0  0  0  0  0  0  0
   -5.5250    2.9051   11.7952 C   0  0  0  0  0  0  0  0  0  0  0  0
   -6.0468    3.5102   12.7148 O   0  0  0  0  0  0  0  0  0  0  0  0
   -6.4687    0.7151   12.7130 C   0  0  0  0  0  0  0  0  0  0  0  0
   -7.8386    0.5220   12.5306 C   0  0  0  0  0  0  0  0  0  0  0  0
   -8.5676   -0.1692   13.4784 C   0  0  0  0  0  0  0  0  0  0  0  0
   -7.9444   -0.6616   14.6109 C   0  0  0  0  0  0  0  0  0  0  0  0
   -6.5877   -0.4695   14.8001 C   0  0  0  0  0  0  0  0  0  0  0  0
   -5.8463    0.2162   13.8579 C   0  0  0  0  0  0  0  0  0  0  0  0
   -4.1439    0.4573   14.0977 Cl  0  0  0  0  0  0  0  0  0  0  0  0
   -8.6238    1.1444   11.1129 Cl  0  0  0  0  0  0  0  0  0  0  0  0
   -3.7173    0.8705    8.6288 C   0  0  0  0  0  0  0  0  0  0  0  0
   -3.0327    1.6029    7.7702 N   0  0  0  0  0  0  0  0  0  0  0  0
   -2.9316    2.9194    7.9165 C   0  0  0  0  0  0  0  0  0  0  0  0
   -3.4996    3.5676    8.9219 N   0  0  0  0  0  0  0  0  0  0  0  0
   -2.2022    3.6381    6.9887 N   0  0  0  0  0  0  0  0  0  0  0  0
   -1.6845    2.9979    5.8588 C   0  0  0  0  0  0  0  0  0  0  0  0
   -2.3855    1.9546    5.2675 C   0  0  0  0  0  0  0  0  0  0  0  0
   -1.8711    1.3241    4.1517 C   0  0  0  0  0  0  0  0  0  0  0  0
   -0.6595    1.7303    3.6230 C   0  0  0  0  0  0  0  0  0  0  0  0
    0.0434    2.7652    4.2124 C   0  0  0  0  0  0  0  0  0  0  0  0
   -0.4679    3.4035    5.3253 C   0  0  0  0  0  0  0  0  0  0  0  0
   -0.1010    1.0397    2.4056 C   0  0  0  0  0  0  0  0  0  0  0  0
    0.1264    1.2293    0.0020 C   0  0  0  0  0  0  0  0  0  0  0  0
   -0.4534    1.9029   -1.2440 C   0  0  0  0  0  0  0  0  0  0  0  0
   -1.0230    3.8513    0.0743 C   0  0  0  0  0  0  0  0  0  0  0  0
   -0.4432    3.1777    1.3204 C   0  0  0  0  0  0  0  0  0  0  0  0
   -0.7947    4.0408   -2.3292 C   0  0  0  0  0  0  0  0  0  0  0  0
   -5.4748    5.5180   10.4454 H   0  0  0  0  0  0  0  0  0  0  0  0
   -4.6980    5.3188   12.0345 H   0  0  0  0  0  0  0  0  0  0  0  0
   -3.7079    5.3330   10.5554 H   0  0  0  0  0  0  0  0  0  0  0  0
   -5.1920   -0.2907   10.5727 H   0  0  0  0  0  0  0  0  0  0  0  0
   -9.6273   -0.3227   13.3367 H   0  0  0  0  0  0  0  0  0  0  0  0
   -8.5197   -1.1982   15.3509 H   0  0  0  0  0  0  0  0  0  0  0  0
   -6.1072   -0.8561   15.6867 H   0  0  0  0  0  0  0  0  0  0  0  0
   -3.7941   -0.1993    8.5026 H   0  0  0  0  0  0  0  0  0  0  0  0
   -2.0493    4.5867    7.1214 H   0  0  0  0  0  0  0  0  0  0  0  0
   -3.3316    1.6367    5.6801 H   0  0  0  0  0  0  0  0  0  0  0  0
   -2.4157    0.5131    3.6912 H   0  0  0  0  0  0  0  0  0  0  0  0
    0.9915    3.0771    3.7997 H   0  0  0  0  0  0  0  0  0  0  0  0
    0.0795    4.2146    5.7824 H   0  0  0  0  0  0  0  0  0  0  0  0
   -0.4316    0.0011    2.3934 H   0  0  0  0  0  0  0  0  0  0  0  0
    0.9880    1.0740    2.4360 H   0  0  0  0  0  0  0  0  0  0  0  0
    0.0004    0.1494   -0.0764 H   0  0  0  0  0  0  0  0  0  0  0  0
    1.1871    1.4667    0.0835 H   0  0  0  0  0  0  0  0  0  0  0  0
    0.0878    1.5622   -2.1267 H   0  0  0  0  0  0  0  0  0  0  0  0
   -1.5075    1.6427   -1.3409 H   0  0  0  0  0  0  0  0  0  0  0  0
   -0.8970    4.9311    0.1528 H   0  0  0  0  0  0  0  0  0  0  0  0
   -2.0837    3.6139   -0.0075 H   0  0  0  0  0  0  0  0  0  0  0  0
    0.6109    3.4376    1.4170 H   0  0  0  0  0  0  0  0  0  0  0  0
   -0.9842    3.5187    2.2031 H   0  0  0  0  0  0  0  0  0  0  0  0
   -1.8455    3.8005   -2.4906 H   0  0  0  0  0  0  0  0  0  0  0  0
   -0.6827    5.1184   -2.2089 H   0  0  0  0  0  0  0  0  0  0  0  0
   -0.2100    3.7082   -3.1869 H   0  0  0  0  0  0  0  0  0  0  0  0
   -0.6060    1.7142    1.1906 N   0  3  0  0  0  0  0  0  0  0  0  0
   -1.6035    1.4979    1.0792 H   0  0  0  0  0  0  0  0  0  0  0  0
   -0.2903    3.3663   -1.1141 N   0  3  0  0  0  0  0  0  0  0  0  0
    0.7073    3.5823   -1.0023 H   0  0  0  0  0  0  0  0  0  0  0  0
  1  2  1  0  0  0  0
  1 34  1  0  0  0  0
  1 35  1  0  0  0  0
  1 36  1  0  0  0  0
  2  7  1  0  0  0  0
  2  3  1  0  0  0  0
  3 20  2  0  0  0  0
  3  4  1  0  0  0  0
  4  5  1  0  0  0  0
  4 17  2  0  0  0  0
  5  6  2  0  0  0  0
  5 37  1  0  0  0  0
  6  7  1  0  0  0  0
  6  9  1  0  0  0  0
  7  8  2  0  0  0  0
  9 14  2  0  0  0  0
  9 10  1  0  0  0  0
 10 11  2  0  0  0  0
 10 16  1  0  0  0  0
 11 12  1  0  0  0  0
 11 38  1  0  0  0  0
 12 13  2  0  0  0  0
 12 39  1  0  0  0  0
 13 14  1  0  0  0  0
 13 40  1  0  0  0  0
 14 15  1  0  0  0  0
 17 18  1  0  0  0  0
 17 41  1  0  0  0  0
 18 19  2  0  0  0  0
 19 20  1  0  0  0  0
 19 21  1  0  0  0  0
 21 22  1  0  0  0  0
 21 42  1  0  0  0  0
 22 27  2  0  0  0  0
 22 23  1  0  0  0  0
 23 24  2  0  0  0  0
 23 43  1  0  0  0  0
 24 25  1  0  0  0  0
 24 44  1  0  0  0  0
 25 26  2  0  0  0  0
 25 28  1  0  0  0  0
 26 27  1  0  0  0  0
 26 45  1  0  0  0  0
 27 46  1  0  0  0  0
 28 47  1  0  0  0  0
 28 48  1  0  0  0  0
 28 60  1  0  0  0  0
 29 30  1  0  0  0  0
 29 49  1  0  0  0  0
 29 50  1  0  0  0  0
 29 60  1  0  0  0  0
 30 51  1  0  0  0  0
 30 52  1  0  0  0  0
 30 62  1  0  0  0  0
 31 32  1  0  0  0  0
 31 53  1  0  0  0  0
 31 54  1  0  0  0  0
 31 62  1  0  0  0  0
 32 55  1  0  0  0  0
 32 56  1  0  0  0  0
 32 60  1  0  0  0  0
 33 57  1  0  0  0  0
 33 58  1  0  0  0  0
 33 59  1  0  0  0  0
 33 62  1  0  0  0  0
 60 61  1  0  0  0  0
 62 63  1  0  0  0  0
M  CHG  2  60   1  62   1
M  END
$$$$
ZINC03815499
  -OEChem-08230709403D

 51 54  0     0  0  0  0  0  0999 V2000
    2.0709    8.2772    0.4276 C   0  0  0  0  0  0  0  0  0  0  0  0
    3.3654    7.5914    0.4148 N   0  0  0  0  0  0  0  0  0  0  0  0
    3.4085    6.2243    0.3059 C   0  0  0  0  0  0  0  0  0  0  0  0
    4.6476    5.5480    0.2920 C   0  0  0  0  0  0  0  0  0  0  0  0
    5.8559    6.2749    0.3904 C   0  0  0  0  0  0  0  0  0  0  0  0
    5.8030    7.6389    0.4978 C   0  0  0  0  0  0  0  0  0  0  0  0
    4.5011    8.3093    0.5096 C   0  0  0  0  0  0  0  0  0  0  0  0
    4.4450    9.5224    0.6053 O   0  0  0  0  0  0  0  0  0  0  0  0
    7.0517    8.4294    0.6022 C   0  0  0  0  0  0  0  0  0  0  0  0
    7.6001    8.7111    1.8540 C   0  0  0  0  0  0  0  0  0  0  0  0
    8.7666    9.4453    1.9441 C   0  0  0  0  0  0  0  0  0  0  0  0
    9.3860    9.9087    0.7974 C   0  0  0  0  0  0  0  0  0  0  0  0
    8.8450    9.6370   -0.4464 C   0  0  0  0  0  0  0  0  0  0  0  0
    7.6814    8.9002   -0.5507 C   0  0  0  0  0  0  0  0  0  0  0  0
    7.0034    8.5613   -2.1124 Cl  0  0  0  0  0  0  0  0  0  0  0  0
    6.8210    8.1355    3.2946 Cl  0  0  0  0  0  0  0  0  0  0  0  0
    4.6477    4.1496    0.1787 C   0  0  0  0  0  0  0  0  0  0  0  0
    3.4895    3.5229    0.0897 N   0  0  0  0  0  0  0  0  0  0  0  0
    2.3421    4.1926    0.1060 C   0  0  0  0  0  0  0  0  0  0  0  0
    2.2918    5.5122    0.2062 N   0  0  0  0  0  0  0  0  0  0  0  0
    1.1585    3.4870    0.0093 N   0  0  0  0  0  0  0  0  0  0  0  0
    1.1757    2.0869    0.0133 C   0  0  0  0  0  0  0  0  0  0  0  0
    2.1234    1.4060    0.7660 C   0  0  0  0  0  0  0  0  0  0  0  0
    2.1394    0.0252    0.7698 C   0  0  0  0  0  0  0  0  0  0  0  0
    1.2089   -0.6817    0.0223 C   0  0  0  0  0  0  0  0  0  0  0  0
    0.2619   -0.0022   -0.7299 C   0  0  0  0  0  0  0  0  0  0  0  0
    0.2448    1.3786   -0.7351 C   0  0  0  0  0  0  0  0  0  0  0  0
    1.2247   -2.0414    0.0273 O   0  0  0  0  0  0  0  0  0  0  0  0
    0.2377   -2.7046   -0.7652 C   0  0  0  0  0  0  0  0  0  0  0  0
    0.4120   -4.2190   -0.6345 C   0  0  0  0  0  0  0  0  0  0  0  0
    1.7162    8.3647    1.4546 H   0  0  0  0  0  0  0  0  0  0  0  0
    2.1823    9.2718   -0.0042 H   0  0  0  0  0  0  0  0  0  0  0  0
    1.3510    7.7055   -0.1580 H   0  0  0  0  0  0  0  0  0  0  0  0
    6.8065    5.7624    0.3799 H   0  0  0  0  0  0  0  0  0  0  0  0
    9.1939    9.6612    2.9121 H   0  0  0  0  0  0  0  0  0  0  0  0
   10.2958   10.4856    0.8735 H   0  0  0  0  0  0  0  0  0  0  0  0
    9.3333   10.0020   -1.3378 H   0  0  0  0  0  0  0  0  0  0  0  0
    5.5758    3.5975    0.1643 H   0  0  0  0  0  0  0  0  0  0  0  0
    0.3154    3.9615   -0.0615 H   0  0  0  0  0  0  0  0  0  0  0  0
    2.8449    1.9561    1.3519 H   0  0  0  0  0  0  0  0  0  0  0  0
    2.8763   -0.5046    1.3552 H   0  0  0  0  0  0  0  0  0  0  0  0
   -0.4620   -0.5533   -1.3119 H   0  0  0  0  0  0  0  0  0  0  0  0
   -0.4923    1.9074   -1.3211 H   0  0  0  0  0  0  0  0  0  0  0  0
   -0.7564   -2.4221   -0.4187 H   0  0  0  0  0  0  0  0  0  0  0  0
    0.3547   -2.4142   -1.8092 H   0  0  0  0  0  0  0  0  0  0  0  0
   -0.2820   -4.7240   -1.3065 H   0  0  0  0  0  0  0  0  0  0  0  0
    1.4344   -4.4911   -0.8966 H   0  0  0  0  0  0  0  0  0  0  0  0
   -0.7831   -4.3276    1.0384 H   0  0  0  0  0  0  0  0  0  0  0  0
    0.2451   -5.6228    0.8621 H   0  0  0  0  0  0  0  0  0  0  0  0
    0.1548   -4.6131    0.7619 N   0  3  0  0  0  0  0  0  0  0  0  0
    0.8391   -4.1532    1.3739 H   0  0  0  0  0  0  0  0  0  0  0  0
  1  2  1  0  0  0  0
  1 31  1  0  0  0  0
  1 32  1  0  0  0  0
  1 33  1  0  0  0  0
  2  7  1  0  0  0  0
  2  3  1  0  0  0  0
  3 20  2  0  0  0  0
  3  4  1  0  0  0  0
  4  5  1  0  0  0  0
  4 17  2  0  0  0  0
  5  6  2  0  0  0  0
  5 34  1  0  0  0  0
  6  7  1  0  0  0  0
  6  9  1  0  0  0  0
  7  8  2  0  0  0  0
  9 14  2  0  0  0  0
  9 10  1  0  0  0  0
 10 11  2  0  0  0  0
 10 16  1  0  0  0  0
 11 12  1  0  0  0  0
 11 35  1  0  0  0  0
 12 13  2  0  0  0  0
 12 36  1  0  0  0  0
 13 14  1  0  0  0  0
 13 37  1  0  0  0  0
 14 15  1  0  0  0  0
 17 18  1  0  0  0  0
 17 38  1  0  0  0  0
 18 19  2  0  0  0  0
 19 20  1  0  0  0  0
 19 21  1  0  0  0  0
 21 22  1  0  0  0  0
 21 39  1  0  0  0  0
 22 27  2  0  0  0  0
 22 23  1  0  0  0  0
 23 24  2  0  0  0  0
 23 40  1  0  0  0  0
 24 25  1  0  0  0  0
 24 41  1  0  0  0  0
 25 26  2  0  0  0  0
 25 28  1  0  0  0  0
 26 27  1  0  0  0  0
 26 42  1  0  0  0  0
 27 43  1  0  0  0  0
 28 29  1  0  0  0  0
 29 30  1  0  0  0  0
 29 44  1  0  0  0  0
 29 45  1  0  0  0  0
 30 46  1  0  0  0  0
 30 47  1  0  0  0  0
 30 50  1  0  0  0  0
 48 50  1  0  0  0  0
 49 50  1  0  0  0  0
 50 51  1  0  0  0  0
M  CHG  1  50   1
M  END
$$$$
ZINC03815501
  -OEChem-08230709403D

 57 60  0     0  0  0  0  0  0999 V2000
    0.0001   -6.4621    2.3646 C   0  0  0  0  0  0  0  0  0  0  0  0
    0.2945   -6.0773    0.9133 C   0  0  0  0  0  0  0  0  0  0  0  0
    0.4120   -4.2190   -0.6345 C   0  0  0  0  0  0  0  0  0  0  0  0
    0.2377   -2.7046   -0.7652 C   0  0  0  0  0  0  0  0  0  0  0  0
    1.2247   -2.0414    0.0273 O   0  0  0  0  0  0  0  0  0  0  0  0
    1.2089   -0.6817    0.0223 C   0  0  0  0  0  0  0  0  0  0  0  0
    2.1394    0.0252    0.7698 C   0  0  0  0  0  0  0  0  0  0  0  0
    2.1234    1.4060    0.7661 C   0  0  0  0  0  0  0  0  0  0  0  0
    1.1757    2.0869    0.0133 C   0  0  0  0  0  0  0  0  0  0  0  0
    0.2449    1.3786   -0.7351 C   0  0  0  0  0  0  0  0  0  0  0  0
    0.2619   -0.0022   -0.7299 C   0  0  0  0  0  0  0  0  0  0  0  0
    1.1585    3.4870    0.0093 N   0  0  0  0  0  0  0  0  0  0  0  0
    2.3421    4.1926    0.1060 C   0  0  0  0  0  0  0  0  0  0  0  0
    3.4897    3.5228    0.0897 N   0  0  0  0  0  0  0  0  0  0  0  0
    4.6477    4.1493    0.1791 C   0  0  0  0  0  0  0  0  0  0  0  0
    4.6476    5.5480    0.2929 C   0  0  0  0  0  0  0  0  0  0  0  0
    5.8558    6.2749    0.3918 C   0  0  0  0  0  0  0  0  0  0  0  0
    5.8029    7.6388    0.5005 C   0  0  0  0  0  0  0  0  0  0  0  0
    4.5009    8.3092    0.5118 C   0  0  0  0  0  0  0  0  0  0  0  0
    4.4447    9.5222    0.6078 O   0  0  0  0  0  0  0  0  0  0  0  0
    3.3654    7.5912    0.4161 N   0  0  0  0  0  0  0  0  0  0  0  0
    3.4087    6.2242    0.3068 C   0  0  0  0  0  0  0  0  0  0  0  0
    2.2918    5.5119    0.2063 N   0  0  0  0  0  0  0  0  0  0  0  0
    2.0708    8.2769    0.4284 C   0  0  0  0  0  0  0  0  0  0  0  0
    7.0516    8.4292    0.6063 C   0  0  0  0  0  0  0  0  0  0  0  0
    7.5990    8.7101    1.8588 C   0  0  0  0  0  0  0  0  0  0  0  0
    8.7657    9.4437    1.9502 C   0  0  0  0  0  0  0  0  0  0  0  0
    9.3860    9.9080    0.8043 C   0  0  0  0  0  0  0  0  0  0  0  0
    8.8456    9.6374   -0.4400 C   0  0  0  0  0  0  0  0  0  0  0  0
    7.6821    8.9008   -0.5457 C   0  0  0  0  0  0  0  0  0  0  0  0
    7.0052    8.5629   -2.1082 Cl  0  0  0  0  0  0  0  0  0  0  0  0
    6.8185    8.1341    3.2984 Cl  0  0  0  0  0  0  0  0  0  0  0  0
    0.1173   -7.5390    2.4858 H   0  0  0  0  0  0  0  0  0  0  0  0
    0.6949   -5.9443    3.0258 H   0  0  0  0  0  0  0  0  0  0  0  0
   -1.0215   -6.1772    2.6159 H   0  0  0  0  0  0  0  0  0  0  0  0
   -0.4002   -6.5951    0.2520 H   0  0  0  0  0  0  0  0  0  0  0  0
    1.3161   -6.3622    0.6619 H   0  0  0  0  0  0  0  0  0  0  0  0
   -0.2819   -4.7240   -1.3065 H   0  0  0  0  0  0  0  0  0  0  0  0
    1.4345   -4.4911   -0.8966 H   0  0  0  0  0  0  0  0  0  0  0  0
   -0.7564   -2.4221   -0.4187 H   0  0  0  0  0  0  0  0  0  0  0  0
    0.3548   -2.4142   -1.8092 H   0  0  0  0  0  0  0  0  0  0  0  0
    2.8763   -0.5046    1.3552 H   0  0  0  0  0  0  0  0  0  0  0  0
    2.8448    1.9561    1.3519 H   0  0  0  0  0  0  0  0  0  0  0  0
   -0.4922    1.9074   -1.3211 H   0  0  0  0  0  0  0  0  0  0  0  0
   -0.4619   -0.5533   -1.3119 H   0  0  0  0  0  0  0  0  0  0  0  0
    0.3154    3.9615   -0.0615 H   0  0  0  0  0  0  0  0  0  0  0  0
    5.5758    3.5973    0.1647 H   0  0  0  0  0  0  0  0  0  0  0  0
    6.8063    5.7623    0.3820 H   0  0  0  0  0  0  0  0  0  0  0  0
    1.7155    8.3640    1.4552 H   0  0  0  0  0  0  0  0  0  0  0  0
    2.1824    9.2716   -0.0031 H   0  0  0  0  0  0  0  0  0  0  0  0
    1.3513    7.7052   -0.1578 H   0  0  0  0  0  0  0  0  0  0  0  0
    9.1927    9.6584    2.9187 H   0  0  0  0  0  0  0  0  0  0  0  0
   10.2960   10.4844    0.8814 H   0  0  0  0  0  0  0  0  0  0  0  0
    9.3344   10.0034   -1.3309 H   0  0  0  0  0  0  0  0  0  0  0  0
    0.1338   -4.6193    0.7578 N   0  3  0  0  0  0  0  0  0  0  0  0
    0.7879   -4.1376    1.3858 H   0  0  0  0  0  0  0  0  0  0  0  0
   -0.8290   -4.3569    0.9997 H   0  0  0  0  0  0  0  0  0  0  0  0
  1  2  1  0  0  0  0
  1 33  1  0  0  0  0
  1 34  1  0  0  0  0
  1 35  1  0  0  0  0
  2 36  1  0  0  0  0
  2 37  1  0  0  0  0
  2 55  1  0  0  0  0
  3  4  1  0  0  0  0
  3 38  1  0  0  0  0
  3 39  1  0  0  0  0
  3 55  1  0  0  0  0
  4  5  1  0  0  0  0
  4 40  1  0  0  0  0
  4 41  1  0  0  0  0
  5  6  1  0  0  0  0
  6 11  2  0  0  0  0
  6  7  1  0  0  0  0
  7  8  2  0  0  0  0
  7 42  1  0  0  0  0
  8  9  1  0  0  0  0
  8 43  1  0  0  0  0
  9 10  2  0  0  0  0
  9 12  1  0  0  0  0
 10 11  1  0  0  0  0
 10 44  1  0  0  0  0
 11 45  1  0  0  0  0
 12 13  1  0  0  0  0
 12 46  1  0  0  0  0
 13 23  2  0  0  0  0
 13 14  1  0  0  0  0
 14 15  2  0  0  0  0
 15 16  1  0  0  0  0
 15 47  1  0  0  0  0
 16 22  2  0  0  0  0
 16 17  1  0  0  0  0
 17 18  2  0  0  0  0
 17 48  1  0  0  0  0
 18 19  1  0  0  0  0
 18 25  1  0  0  0  0
 19 20  2  0  0  0  0
 19 21  1  0  0  0  0
 21 22  1  0  0  0  0
 21 24  1  0  0  0  0
 22 23  1  0  0  0  0
 24 49  1  0  0  0  0
 24 50  1  0  0  0  0
 24 51  1  0  0  0  0
 25 30  2  0  0  0  0
 25 26  1  0  0  0  0
 26 27  2  0  0  0  0
 26 32  1  0  0  0  0
 27 28  1  0  0  0  0
 27 52  1  0  0  0  0
 28 29  2  0  0  0  0
 28 53  1  0  0  0  0
 29 30  1  0  0  0  0
 29 54  1  0  0  0  0
 30 31  1  0  0  0  0
 55 56  1  0  0  0  0
 55 57  1  0  0  0  0
M  CHG  1  55   1
M  END
$$$$
ZINC03815504
  -OEChem-08230709403D

 37 39  0     0  0  0  0  0  0999 V2000
    4.7161    2.6672   -0.5613 C   0  0  0  0  0  0  0  0  0  0  0  0
    3.2116    2.6200   -0.4896 C   0  0  0  0  0  0  0  0  0  0  0  0
    2.3698    3.6620   -0.7028 C   0  0  0  0  0  0  0  0  0  0  0  0
    1.0910    3.2334   -0.5547 N   0  0  0  0  0  0  0  0  0  0  0  0
    0.2957    3.7793   -0.6566 H   0  0  0  0  0  0  0  0  0  0  0  0
    1.1110    1.8936   -0.2316 C   0  0  0  0  0  0  0  0  0  0  0  0
    2.4387    1.4963   -0.1913 C   0  0  0  0  0  0  0  0  0  0  0  0
    2.9509    0.1127    0.1160 C   0  0  0  0  0  0  0  0  0  0  0  0
    3.0672   -0.6881   -1.1825 C   0  0  0  0  0  0  0  0  0  0  0  0
    3.5794   -2.0717   -0.8752 C   0  0  0  0  0  0  0  0  0  0  0  0
    3.8260   -2.3852    0.2653 O   0  0  0  0  0  0  0  0  0  0  0  0
   -0.0126    1.0758    0.0080 C   0  0  0  0  0  0  0  0  0  0  0  0
   -1.1420    1.6094    0.5988 C   0  0  0  0  0  0  0  0  0  0  0  0
   -2.4575    0.9561    0.7788 C   0  0  0  0  0  0  0  0  0  0  0  0
   -2.9479   -0.3054    0.4566 C   0  0  0  0  0  0  0  0  0  0  0  0
   -4.2527   -0.6326    0.7685 C   0  0  0  0  0  0  0  0  0  0  0  0
   -5.0670    0.2904    1.4055 C   0  0  0  0  0  0  0  0  0  0  0  0
   -4.5873    1.5416    1.7351 C   0  0  0  0  0  0  0  0  0  0  0  0
   -3.2761    1.8894    1.4291 C   0  0  0  0  0  0  0  0  0  0  0  0
   -2.5543    3.0573    1.6443 N   0  0  0  0  0  0  0  0  0  0  0  0
   -1.2985    2.9496    1.1781 C   0  0  0  0  0  0  0  0  0  0  0  0
   -0.4403    3.8130    1.2269 O   0  0  0  0  0  0  0  0  0  0  0  0
   -4.9294   -2.3419    0.3254 Br  0  0  0  0  0  0  0  0  0  0  0  0
    5.0387    2.4409   -1.5776 H   0  0  0  0  0  0  0  0  0  0  0  0
    5.0621    3.6628   -0.2835 H   0  0  0  0  0  0  0  0  0  0  0  0
    5.1358    1.9319    0.1252 H   0  0  0  0  0  0  0  0  0  0  0  0
    2.6690    4.6689   -0.9538 H   0  0  0  0  0  0  0  0  0  0  0  0
    3.9309    0.1844    0.5876 H   0  0  0  0  0  0  0  0  0  0  0  0
    2.2584   -0.3894    0.7916 H   0  0  0  0  0  0  0  0  0  0  0  0
    2.0872   -0.7599   -1.6542 H   0  0  0  0  0  0  0  0  0  0  0  0
    3.7597   -0.1861   -1.8582 H   0  0  0  0  0  0  0  0  0  0  0  0
    0.0080    0.0336   -0.2744 H   0  0  0  0  0  0  0  0  0  0  0  0
   -2.3124   -1.0239   -0.0397 H   0  0  0  0  0  0  0  0  0  0  0  0
   -6.0865    0.0278    1.6464 H   0  0  0  0  0  0  0  0  0  0  0  0
   -5.2316    2.2522    2.2313 H   0  0  0  0  0  0  0  0  0  0  0  0
   -2.9115    3.8494    2.0755 H   0  0  0  0  0  0  0  0  0  0  0  0
    3.7615   -2.9559   -1.8686 O   0  5  0  0  0  0  0  0  0  0  0  0
  1  2  1  0  0  0  0
  1 24  1  0  0  0  0
  1 25  1  0  0  0  0
  1 26  1  0  0  0  0
  2  7  1  0  0  0  0
  2  3  2  0  0  0  0
  3  4  1  0  0  0  0
  3 27  1  0  0  0  0
  4  5  1  0  0  0  0
  4  6  1  0  0  0  0
  6  7  2  0  0  0  0
  6 12  1  0  0  0  0
  7  8  1  0  0  0  0
  8  9  1  0  0  0  0
  8 28  1  0  0  0  0
  8 29  1  0  0  0  0
  9 10  1  0  0  0  0
  9 30  1  0  0  0  0
  9 31  1  0  0  0  0
 10 11  2  0  0  0  0
 10 37  1  0  0  0  0
 12 13  2  0  0  0  0
 12 32  1  0  0  0  0
 13 21  1  0  0  0  0
 13 14  1  0  0  0  0
 14 19  2  0  0  0  0
 14 15  1  0  0  0  0
 15 16  2  0  0  0  0
 15 33  1  0  0  0  0
 16 17  1  0  0  0  0
 16 23  1  0  0  0  0
 17 18  2  0  0  0  0
 17 34  1  0  0  0  0
 18 19  1  0  0  0  0
 18 35  1  0  0  0  0
 19 20  1  0  0  0  0
 20 21  1  0  0  0  0
 20 36  1  0  0  0  0
 21 22  2  0  0  0  0
M  CHG  1  37  -1
M  END
$$$$
ZINC03815505
  -OEChem-08230709403D

 63 65  0     0  0  0  0  0  0999 V2000
  -11.3762   -4.6258   -0.8142 C   0  0  0  0  0  0  0  0  0  0  0  0
   -9.8919   -4.3554   -1.0687 C   0  0  0  0  0  0  0  0  0  0  0  0
   -9.1704   -5.9302    0.6231 C   0  0  0  0  0  0  0  0  0  0  0  0
   -8.8283   -6.0031    2.1125 C   0  0  0  0  0  0  0  0  0  0  0  0
   -7.7593   -4.0519    0.0370 C   0  0  0  0  0  0  0  0  0  0  0  0
   -7.7427   -2.5223    0.0651 C   0  0  0  0  0  0  0  0  0  0  0  0
   -6.2951   -2.0275    0.0432 C   0  0  0  0  0  0  0  0  0  0  0  0
   -6.2785   -0.4978    0.0713 C   0  0  0  0  0  0  0  0  0  0  0  0
   -4.8309   -0.0031    0.0494 C   0  0  0  0  0  0  0  0  0  0  0  0
   -4.8150    1.4616    0.0763 N   0  0  0  0  0  0  0  0  0  0  0  0
   -3.6064    2.1425    0.0630 C   0  0  0  0  0  0  0  0  0  0  0  0
   -2.4202    1.4227    0.0246 C   0  0  0  0  0  0  0  0  0  0  0  0
   -1.2155    2.1148    0.0068 C   0  0  0  0  0  0  0  0  0  0  0  0
   -1.2529    3.5264    0.0386 C   0  0  0  0  0  0  0  0  0  0  0  0
   -0.0460    4.2651    0.0264 C   0  0  0  0  0  0  0  0  0  0  0  0
    1.1454    3.5933   -0.0116 C   0  0  0  0  0  0  0  0  0  0  0  0
    1.1489    2.1289   -0.0389 C   0  0  0  0  0  0  0  0  0  0  0  0
    2.2064    1.5252   -0.0728 O   0  0  0  0  0  0  0  0  0  0  0  0
   -0.0131    1.4467   -0.0261 N   0  0  0  0  0  0  0  0  0  0  0  0
    0.0038   -0.0179   -0.0537 C   0  0  0  0  0  0  0  0  0  0  0  0
    2.4235    4.3423   -0.0257 C   0  0  0  0  0  0  0  0  0  0  0  0
    3.0046    4.7140   -1.2387 C   0  0  0  0  0  0  0  0  0  0  0  0
    4.1936    5.4168   -1.2447 C   0  0  0  0  0  0  0  0  0  0  0  0
    4.8137    5.7430   -0.0520 C   0  0  0  0  0  0  0  0  0  0  0  0
    4.2458    5.3726    1.1538 C   0  0  0  0  0  0  0  0  0  0  0  0
    3.0545    4.6742    1.1739 C   0  0  0  0  0  0  0  0  0  0  0  0
    2.3438    4.2098    2.6881 Cl  0  0  0  0  0  0  0  0  0  0  0  0
    2.2317    4.2992   -2.7368 Cl  0  0  0  0  0  0  0  0  0  0  0  0
   -2.4943    4.1724    0.0773 C   0  0  0  0  0  0  0  0  0  0  0  0
  -11.5029   -5.6465   -0.4533 H   0  0  0  0  0  0  0  0  0  0  0  0
  -11.7497   -3.9268   -0.0659 H   0  0  0  0  0  0  0  0  0  0  0  0
  -11.9333   -4.4967   -1.7421 H   0  0  0  0  0  0  0  0  0  0  0  0
   -9.7652   -3.3348   -1.4296 H   0  0  0  0  0  0  0  0  0  0  0  0
   -9.5184   -5.0544   -1.8170 H   0  0  0  0  0  0  0  0  0  0  0  0
  -10.1661   -6.3422    0.4584 H   0  0  0  0  0  0  0  0  0  0  0  0
   -8.4404   -6.5058    0.0540 H   0  0  0  0  0  0  0  0  0  0  0  0
   -7.7996   -5.6768    2.2654 H   0  0  0  0  0  0  0  0  0  0  0  0
   -9.5022   -5.3546    2.6723 H   0  0  0  0  0  0  0  0  0  0  0  0
   -8.9393   -7.0299    2.4610 H   0  0  0  0  0  0  0  0  0  0  0  0
   -7.3513   -4.4024   -0.9110 H   0  0  0  0  0  0  0  0  0  0  0  0
   -7.1540   -4.4370    0.8576 H   0  0  0  0  0  0  0  0  0  0  0  0
   -8.2334   -2.1702    0.9725 H   0  0  0  0  0  0  0  0  0  0  0  0
   -8.2716   -2.1371   -0.8067 H   0  0  0  0  0  0  0  0  0  0  0  0
   -5.8045   -2.3796   -0.8642 H   0  0  0  0  0  0  0  0  0  0  0  0
   -5.7663   -2.4127    0.9151 H   0  0  0  0  0  0  0  0  0  0  0  0
   -6.7691   -0.1458    0.9787 H   0  0  0  0  0  0  0  0  0  0  0  0
   -6.8073   -0.1127   -0.8005 H   0  0  0  0  0  0  0  0  0  0  0  0
   -4.3402   -0.3551   -0.8580 H   0  0  0  0  0  0  0  0  0  0  0  0
   -4.3020   -0.3882    0.9212 H   0  0  0  0  0  0  0  0  0  0  0  0
   -5.6495    1.9553    0.1034 H   0  0  0  0  0  0  0  0  0  0  0  0
   -2.4335    0.3429    0.0048 H   0  0  0  0  0  0  0  0  0  0  0  0
   -0.0650    5.3448    0.0465 H   0  0  0  0  0  0  0  0  0  0  0  0
    1.0354   -0.3689   -0.0828 H   0  0  0  0  0  0  0  0  0  0  0  0
   -0.4862   -0.4038    0.8402 H   0  0  0  0  0  0  0  0  0  0  0  0
   -0.5251   -0.3708   -0.9390 H   0  0  0  0  0  0  0  0  0  0  0  0
    4.6423    5.7086   -2.1827 H   0  0  0  0  0  0  0  0  0  0  0  0
    5.7454    6.2891   -0.0622 H   0  0  0  0  0  0  0  0  0  0  0  0
    4.7350    5.6304    2.0815 H   0  0  0  0  0  0  0  0  0  0  0  0
   -2.5387    5.2513    0.0983 H   0  0  0  0  0  0  0  0  0  0  0  0
   -9.1538   -4.5135    0.2021 N   0  3  0  0  0  0  0  0  0  0  0  0
   -9.6097   -3.9452    0.9255 H   0  0  0  0  0  0  0  0  0  0  0  0
   -3.6794    3.5110    0.0900 N   0  3  0  0  0  0  0  0  0  0  0  0
   -4.5781    4.0067    0.1181 H   0  0  0  0  0  0  0  0  0  0  0  0
  1  2  1  0  0  0  0
  1 30  1  0  0  0  0
  1 31  1  0  0  0  0
  1 32  1  0  0  0  0
  2 33  1  0  0  0  0
  2 34  1  0  0  0  0
  2 60  1  0  0  0  0
  3  4  1  0  0  0  0
  3 35  1  0  0  0  0
  3 36  1  0  0  0  0
  3 60  1  0  0  0  0
  4 37  1  0  0  0  0
  4 38  1  0  0  0  0
  4 39  1  0  0  0  0
  5  6  1  0  0  0  0
  5 40  1  0  0  0  0
  5 41  1  0  0  0  0
  5 60  1  0  0  0  0
  6  7  1  0  0  0  0
  6 42  1  0  0  0  0
  6 43  1  0  0  0  0
  7  8  1  0  0  0  0
  7 44  1  0  0  0  0
  7 45  1  0  0  0  0
  8  9  1  0  0  0  0
  8 46  1  0  0  0  0
  8 47  1  0  0  0  0
  9 10  1  0  0  0  0
  9 48  1  0  0  0  0
  9 49  1  0  0  0  0
 10 11  1  0  0  0  0
 10 50  1  0  0  0  0
 11 12  2  0  0  0  0
 11 62  1  0  0  0  0
 12 13  1  0  0  0  0
 12 51  1  0  0  0  0
 13 19  1  0  0  0  0
 13 14  2  0  0  0  0
 14 15  1  0  0  0  0
 14 29  1  0  0  0  0
 15 16  2  0  0  0  0
 15 52  1  0  0  0  0
 16 17  1  0  0  0  0
 16 21  1  0  0  0  0
 17 18  2  0  0  0  0
 17 19  1  0  0  0  0
 19 20  1  0  0  0  0
 20 53  1  0  0  0  0
 20 54  1  0  0  0  0
 20 55  1  0  0  0  0
 21 26  2  0  0  0  0
 21 22  1  0  0  0  0
 22 23  2  0  0  0  0
 22 28  1  0  0  0  0
 23 24  1  0  0  0  0
 23 56  1  0  0  0  0
 24 25  2  0  0  0  0
 24 57  1  0  0  0  0
 25 26  1  0  0  0  0
 25 58  1  0  0  0  0
 26 27  1  0  0  0  0
 29 59  1  0  0  0  0
 29 62  2  0  0  0  0
 60 61  1  0  0  0  0
 62 63  1  0  0  0  0
M  CHG  2  60   1  62   1
M  END
$$$$
ZINC03815508
  -OEChem-08230709403D

 69 71  0     0  0  0  0  0  0999 V2000
   -6.4337    5.8814    0.9585 C   0  0  0  0  0  0  0  0  0  0  0  0
   -4.9390    5.6534    1.1926 C   0  0  0  0  0  0  0  0  0  0  0  0
   -4.2857    7.2477   -0.5086 C   0  0  0  0  0  0  0  0  0  0  0  0
   -3.9661    7.3299   -2.0026 C   0  0  0  0  0  0  0  0  0  0  0  0
   -2.8140    5.4103    0.0578 C   0  0  0  0  0  0  0  0  0  0  0  0
   -2.7543    3.8817    0.0292 C   0  0  0  0  0  0  0  0  0  0  0  0
   -1.2931    3.4283    0.0313 C   0  0  0  0  0  0  0  0  0  0  0  0
   -1.2360    1.9646    0.0039 N   0  0  0  0  0  0  0  0  0  0  0  0
   -0.0131    1.3208    0.0006 C   0  0  0  0  0  0  0  0  0  0  0  0
    1.0959    2.0571    0.0171 N   0  0  0  0  0  0  0  0  0  0  0  0
    2.2900    1.4999    0.0094 C   0  0  0  0  0  0  0  0  0  0  0  0
    2.3750    0.0973   -0.0169 C   0  0  0  0  0  0  0  0  0  0  0  0
    3.6103   -0.5712   -0.0271 C   0  0  0  0  0  0  0  0  0  0  0  0
    3.5989   -1.9566   -0.0538 C   0  0  0  0  0  0  0  0  0  0  0  0
    2.3644   -2.6402   -0.0696 C   0  0  0  0  0  0  0  0  0  0  0  0
    1.2184   -1.9905   -0.0595 N   0  0  0  0  0  0  0  0  0  0  0  0
    1.1727   -0.6572   -0.0340 C   0  0  0  0  0  0  0  0  0  0  0  0
    0.0072    0.0017   -0.0243 N   0  0  0  0  0  0  0  0  0  0  0  0
    2.3574   -4.0273   -0.0958 N   0  0  0  0  0  0  0  0  0  0  0  0
    1.1868   -4.6952   -0.1111 C   0  0  0  0  0  0  0  0  0  0  0  0
    0.1371   -4.0821   -0.1019 O   0  0  0  0  0  0  0  0  0  0  0  0
    1.1801   -6.0427   -0.1365 N   0  0  0  0  0  0  0  0  0  0  0  0
   -0.0923   -6.7686   -0.1532 C   0  0  0  0  0  0  0  0  0  0  0  0
   -0.8898   -6.3714   -1.3970 C   0  0  0  0  0  0  0  0  0  0  0  0
    0.1797   -8.2740   -0.1810 C   0  0  0  0  0  0  0  0  0  0  0  0
   -0.8956   -6.4186    1.1010 C   0  0  0  0  0  0  0  0  0  0  0  0
    4.8732   -2.7145   -0.0661 C   0  0  0  0  0  0  0  0  0  0  0  0
    5.4742   -3.0543   -1.2781 C   0  0  0  0  0  0  0  0  0  0  0  0
    6.6641   -3.7558   -1.2828 C   0  0  0  0  0  0  0  0  0  0  0  0
    7.2541   -4.1305   -0.0892 C   0  0  0  0  0  0  0  0  0  0  0  0
    6.6601   -3.8016    1.1159 C   0  0  0  0  0  0  0  0  0  0  0  0
    5.4730   -3.0957    1.1341 C   0  0  0  0  0  0  0  0  0  0  0  0
    4.7287   -2.6843    2.6476 Cl  0  0  0  0  0  0  0  0  0  0  0  0
    4.7316   -2.5912   -2.7774 Cl  0  0  0  0  0  0  0  0  0  0  0  0
   -6.7974    5.1720    0.2152 H   0  0  0  0  0  0  0  0  0  0  0  0
   -6.9742    5.7368    1.8939 H   0  0  0  0  0  0  0  0  0  0  0  0
   -6.5943    6.8980    0.5995 H   0  0  0  0  0  0  0  0  0  0  0  0
   -4.7784    4.6368    1.5516 H   0  0  0  0  0  0  0  0  0  0  0  0
   -4.5753    6.3629    1.9359 H   0  0  0  0  0  0  0  0  0  0  0  0
   -5.2903    7.6312   -0.3303 H   0  0  0  0  0  0  0  0  0  0  0  0
   -3.5646    7.8439    0.0506 H   0  0  0  0  0  0  0  0  0  0  0  0
   -4.6290    6.6623   -2.5532 H   0  0  0  0  0  0  0  0  0  0  0  0
   -4.1110    8.3531   -2.3493 H   0  0  0  0  0  0  0  0  0  0  0  0
   -2.9308    7.0328   -2.1695 H   0  0  0  0  0  0  0  0  0  0  0  0
   -2.4032    5.7724    1.0002 H   0  0  0  0  0  0  0  0  0  0  0  0
   -2.2311    5.8122   -0.7709 H   0  0  0  0  0  0  0  0  0  0  0  0
   -3.2471    3.5157   -0.8714 H   0  0  0  0  0  0  0  0  0  0  0  0
   -3.2601    3.4819    0.9082 H   0  0  0  0  0  0  0  0  0  0  0  0
   -0.8003    3.7943    0.9319 H   0  0  0  0  0  0  0  0  0  0  0  0
   -0.7874    3.8281   -0.8477 H   0  0  0  0  0  0  0  0  0  0  0  0
   -2.0565    1.4475   -0.0118 H   0  0  0  0  0  0  0  0  0  0  0  0
    3.1829    2.1072    0.0233 H   0  0  0  0  0  0  0  0  0  0  0  0
    4.5404   -0.0224   -0.0142 H   0  0  0  0  0  0  0  0  0  0  0  0
    3.1950   -4.5165   -0.1031 H   0  0  0  0  0  0  0  0  0  0  0  0
    2.0177   -6.5318   -0.1438 H   0  0  0  0  0  0  0  0  0  0  0  0
   -0.3175   -6.6208   -2.2905 H   0  0  0  0  0  0  0  0  0  0  0  0
   -1.8365   -6.9115   -1.4094 H   0  0  0  0  0  0  0  0  0  0  0  0
   -1.0836   -5.2990   -1.3772 H   0  0  0  0  0  0  0  0  0  0  0  0
    0.7479   -8.5570    0.7051 H   0  0  0  0  0  0  0  0  0  0  0  0
   -0.7670   -8.8141   -0.1934 H   0  0  0  0  0  0  0  0  0  0  0  0
    0.7520   -8.5234   -1.0745 H   0  0  0  0  0  0  0  0  0  0  0  0
   -1.0894   -5.3461    1.1208 H   0  0  0  0  0  0  0  0  0  0  0  0
   -1.8423   -6.9587    1.0886 H   0  0  0  0  0  0  0  0  0  0  0  0
   -0.3275   -6.7016    1.9871 H   0  0  0  0  0  0  0  0  0  0  0  0
    7.1328   -4.0156   -2.2204 H   0  0  0  0  0  0  0  0  0  0  0  0
    8.1823   -4.6825   -0.0982 H   0  0  0  0  0  0  0  0  0  0  0  0
    7.1257   -4.0970    2.0445 H   0  0  0  0  0  0  0  0  0  0  0  0
   -4.2231    5.8320   -0.0881 N   0  3  0  0  0  0  0  0  0  0  0  0
   -4.6726    5.2509   -0.8053 H   0  0  0  0  0  0  0  0  0  0  0  0
  1  2  1  0  0  0  0
  1 35  1  0  0  0  0
  1 36  1  0  0  0  0
  1 37  1  0  0  0  0
  2 38  1  0  0  0  0
  2 39  1  0  0  0  0
  2 68  1  0  0  0  0
  3  4  1  0  0  0  0
  3 40  1  0  0  0  0
  3 41  1  0  0  0  0
  3 68  1  0  0  0  0
  4 42  1  0  0  0  0
  4 43  1  0  0  0  0
  4 44  1  0  0  0  0
  5  6  1  0  0  0  0
  5 45  1  0  0  0  0
  5 46  1  0  0  0  0
  5 68  1  0  0  0  0
  6  7  1  0  0  0  0
  6 47  1  0  0  0  0
  6 48  1  0  0  0  0
  7  8  1  0  0  0  0
  7 49  1  0  0  0  0
  7 50  1  0  0  0  0
  8  9  1  0  0  0  0
  8 51  1  0  0  0  0
  9 18  2  0  0  0  0
  9 10  1  0  0  0  0
 10 11  2  0  0  0  0
 11 12  1  0  0  0  0
 11 52  1  0  0  0  0
 12 17  2  0  0  0  0
 12 13  1  0  0  0  0
 13 14  2  0  0  0  0
 13 53  1  0  0  0  0
 14 15  1  0  0  0  0
 14 27  1  0  0  0  0
 15 16  2  0  0  0  0
 15 19  1  0  0  0  0
 16 17  1  0  0  0  0
 17 18  1  0  0  0  0
 19 20  1  0  0  0  0
 19 54  1  0  0  0  0
 20 21  2  0  0  0  0
 20 22  1  0  0  0  0
 22 23  1  0  0  0  0
 22 55  1  0  0  0  0
 23 24  1  0  0  0  0
 23 25  1  0  0  0  0
 23 26  1  0  0  0  0
 24 56  1  0  0  0  0
 24 57  1  0  0  0  0
 24 58  1  0  0  0  0
 25 59  1  0  0  0  0
 25 60  1  0  0  0  0
 25 61  1  0  0  0  0
 26 62  1  0  0  0  0
 26 63  1  0  0  0  0
 26 64  1  0  0  0  0
 27 32  2  0  0  0  0
 27 28  1  0  0  0  0
 28 29  2  0  0  0  0
 28 34  1  0  0  0  0
 29 30  1  0  0  0  0
 29 65  1  0  0  0  0
 30 31  2  0  0  0  0
 30 66  1  0  0  0  0
 31 32  1  0  0  0  0
 31 67  1  0  0  0  0
 32 33  1  0  0  0  0
 68 69  1  0  0  0  0
M  CHG  1  68   1
M  END
$$$$
ZINC03815509
  -OEChem-08230709403D

 63 66  0     0  0  0  0  0  0999 V2000
   -0.2742    8.9607   -1.2397 C   0  0  0  0  0  0  0  0  0  0  0  0
    0.4657    8.7038    0.0746 C   0  0  0  0  0  0  0  0  0  0  0  0
    1.8111    8.2001   -0.2128 N   0  0  0  0  0  0  0  0  0  0  0  0
    2.0195    6.8491   -0.3307 C   0  0  0  0  0  0  0  0  0  0  0  0
    3.3100    6.3473   -0.6065 C   0  0  0  0  0  0  0  0  0  0  0  0
    4.3993    7.2340   -0.7641 C   0  0  0  0  0  0  0  0  0  0  0  0
    4.1816    8.5806   -0.6451 C   0  0  0  0  0  0  0  0  0  0  0  0
    2.8308    9.0679   -0.3585 C   0  0  0  0  0  0  0  0  0  0  0  0
    2.6283   10.2643   -0.2511 O   0  0  0  0  0  0  0  0  0  0  0  0
    5.3027    9.5361   -0.8052 C   0  0  0  0  0  0  0  0  0  0  0  0
    5.7149   10.3187    0.2728 C   0  0  0  0  0  0  0  0  0  0  0  0
    6.7630   11.2030    0.1190 C   0  0  0  0  0  0  0  0  0  0  0  0
    7.3969   11.3223   -1.1049 C   0  0  0  0  0  0  0  0  0  0  0  0
    6.9891   10.5524   -2.1794 C   0  0  0  0  0  0  0  0  0  0  0  0
    5.9460    9.6605   -2.0363 C   0  0  0  0  0  0  0  0  0  0  0  0
    3.4806    4.9592   -0.7193 C   0  0  0  0  0  0  0  0  0  0  0  0
    2.4279    4.1787   -0.5631 N   0  0  0  0  0  0  0  0  0  0  0  0
    1.2277    4.6864   -0.3043 C   0  0  0  0  0  0  0  0  0  0  0  0
    1.0166    5.9891   -0.1941 N   0  0  0  0  0  0  0  0  0  0  0  0
    0.1598    3.8240   -0.1499 N   0  0  0  0  0  0  0  0  0  0  0  0
    0.3639    2.4399   -0.2056 C   0  0  0  0  0  0  0  0  0  0  0  0
    1.5479    1.8925    0.2709 C   0  0  0  0  0  0  0  0  0  0  0  0
    1.7482    0.5273    0.2160 C   0  0  0  0  0  0  0  0  0  0  0  0
    0.7672   -0.2973   -0.3150 C   0  0  0  0  0  0  0  0  0  0  0  0
   -0.4159    0.2487   -0.7907 C   0  0  0  0  0  0  0  0  0  0  0  0
   -0.6177    1.6137   -0.7370 C   0  0  0  0  0  0  0  0  0  0  0  0
    0.9653   -1.6415   -0.3687 O   0  0  0  0  0  0  0  0  0  0  0  0
   -0.1211   -2.4389   -0.8441 C   0  0  0  0  0  0  0  0  0  0  0  0
   -2.4568   -2.8449   -0.3516 C   0  0  0  0  0  0  0  0  0  0  0  0
   -3.5286   -2.5692    0.7048 C   0  0  0  0  0  0  0  0  0  0  0  0
   -0.7451   -3.6186    1.1762 C   0  0  0  0  0  0  0  0  0  0  0  0
    0.3546   -3.0851    2.0965 C   0  0  0  0  0  0  0  0  0  0  0  0
   -1.2752    9.3354   -1.0258 H   0  0  0  0  0  0  0  0  0  0  0  0
    0.2726    9.6990   -1.8261 H   0  0  0  0  0  0  0  0  0  0  0  0
   -0.3472    8.0306   -1.8033 H   0  0  0  0  0  0  0  0  0  0  0  0
   -0.0811    7.9654    0.6611 H   0  0  0  0  0  0  0  0  0  0  0  0
    0.5387    9.6338    0.6383 H   0  0  0  0  0  0  0  0  0  0  0  0
    5.3885    6.8552   -0.9748 H   0  0  0  0  0  0  0  0  0  0  0  0
    5.2176   10.2299    1.2274 H   0  0  0  0  0  0  0  0  0  0  0  0
    7.0863   11.8062    0.9544 H   0  0  0  0  0  0  0  0  0  0  0  0
    8.2138   12.0190   -1.2217 H   0  0  0  0  0  0  0  0  0  0  0  0
    7.4878   10.6499   -3.1324 H   0  0  0  0  0  0  0  0  0  0  0  0
    5.6286    9.0597   -2.8758 H   0  0  0  0  0  0  0  0  0  0  0  0
    4.4527    4.5384   -0.9299 H   0  0  0  0  0  0  0  0  0  0  0  0
   -0.7315    4.1773   -0.0029 H   0  0  0  0  0  0  0  0  0  0  0  0
    2.3099    2.5339    0.6884 H   0  0  0  0  0  0  0  0  0  0  0  0
    2.6688    0.1014    0.5868 H   0  0  0  0  0  0  0  0  0  0  0  0
   -1.1794   -0.3940   -1.2036 H   0  0  0  0  0  0  0  0  0  0  0  0
   -1.5389    2.0386   -1.1074 H   0  0  0  0  0  0  0  0  0  0  0  0
   -0.5708   -1.9590   -1.7134 H   0  0  0  0  0  0  0  0  0  0  0  0
    0.2476   -3.4256   -1.1239 H   0  0  0  0  0  0  0  0  0  0  0  0
   -2.6215   -2.1985   -1.2137 H   0  0  0  0  0  0  0  0  0  0  0  0
   -2.5137   -3.8878   -0.6634 H   0  0  0  0  0  0  0  0  0  0  0  0
   -4.5118   -2.7963    0.2928 H   0  0  0  0  0  0  0  0  0  0  0  0
   -3.3472   -3.1953    1.5784 H   0  0  0  0  0  0  0  0  0  0  0  0
   -3.4903   -1.5194    0.9959 H   0  0  0  0  0  0  0  0  0  0  0  0
   -1.6129   -3.9006    1.7725 H   0  0  0  0  0  0  0  0  0  0  0  0
   -0.3760   -4.4909    0.6367 H   0  0  0  0  0  0  0  0  0  0  0  0
    1.2055   -2.7625    1.4966 H   0  0  0  0  0  0  0  0  0  0  0  0
   -0.0284   -2.2398    2.6681 H   0  0  0  0  0  0  0  0  0  0  0  0
    0.6700   -3.8731    2.7803 H   0  0  0  0  0  0  0  0  0  0  0  0
   -1.1303   -2.5503    0.2301 N   0  3  0  0  0  0  0  0  0  0  0  0
   -1.1787   -1.6582    0.7361 H   0  0  0  0  0  0  0  0  0  0  0  0
  1  2  1  0  0  0  0
  1 33  1  0  0  0  0
  1 34  1  0  0  0  0
  1 35  1  0  0  0  0
  2  3  1  0  0  0  0
  2 36  1  0  0  0  0
  2 37  1  0  0  0  0
  3  8  1  0  0  0  0
  3  4  1  0  0  0  0
  4 19  2  0  0  0  0
  4  5  1  0  0  0  0
  5  6  1  0  0  0  0
  5 16  2  0  0  0  0
  6  7  2  0  0  0  0
  6 38  1  0  0  0  0
  7  8  1  0  0  0  0
  7 10  1  0  0  0  0
  8  9  2  0  0  0  0
 10 15  2  0  0  0  0
 10 11  1  0  0  0  0
 11 12  2  0  0  0  0
 11 39  1  0  0  0  0
 12 13  1  0  0  0  0
 12 40  1  0  0  0  0
 13 14  2  0  0  0  0
 13 41  1  0  0  0  0
 14 15  1  0  0  0  0
 14 42  1  0  0  0  0
 15 43  1  0  0  0  0
 16 17  1  0  0  0  0
 16 44  1  0  0  0  0
 17 18  2  0  0  0  0
 18 19  1  0  0  0  0
 18 20  1  0  0  0  0
 20 21  1  0  0  0  0
 20 45  1  0  0  0  0
 21 26  2  0  0  0  0
 21 22  1  0  0  0  0
 22 23  2  0  0  0  0
 22 46  1  0  0  0  0
 23 24  1  0  0  0  0
 23 47  1  0  0  0  0
 24 25  2  0  0  0  0
 24 27  1  0  0  0  0
 25 26  1  0  0  0  0
 25 48  1  0  0  0  0
 26 49  1  0  0  0  0
 27 28  1  0  0  0  0
 28 50  1  0  0  0  0
 28 51  1  0  0  0  0
 28 62  1  0  0  0  0
 29 30  1  0  0  0  0
 29 52  1  0  0  0  0
 29 53  1  0  0  0  0
 29 62  1  0  0  0  0
 30 54  1  0  0  0  0
 30 55  1  0  0  0  0
 30 56  1  0  0  0  0
 31 32  1  0  0  0  0
 31 57  1  0  0  0  0
 31 58  1  0  0  0  0
 31 62  1  0  0  0  0
 32 59  1  0  0  0  0
 32 60  1  0  0  0  0
 32 61  1  0  0  0  0
 62 63  1  0  0  0  0
M  CHG  1  62   1
M  END
$$$$
ZINC03815514
  -OEChem-08230709403D

 71 75  0     0  0  0  0  0  0999 V2000
    5.9751    6.4973   -0.1156 C   0  0  0  0  0  0  0  0  0  0  0  0
    6.8914    5.8003   -1.0216 N   0  0  0  0  0  0  0  0  0  0  0  0
    6.7829    4.4387   -1.1873 C   0  0  0  0  0  0  0  0  0  0  0  0
    5.8150    3.7083   -0.5081 C   0  0  0  0  0  0  0  0  0  0  0  0
    5.7461    2.3368   -0.7095 C   0  0  0  0  0  0  0  0  0  0  0  0
    6.5837    1.7175   -1.5349 N   0  0  0  0  0  0  0  0  0  0  0  0
    7.5164    2.3625   -2.2006 C   0  0  0  0  0  0  0  0  0  0  0  0
    7.6565    3.7484   -2.0560 C   0  0  0  0  0  0  0  0  0  0  0  0
    8.6542    4.4585   -2.7649 C   0  0  0  0  0  0  0  0  0  0  0  0
    8.7556    5.8125   -2.5947 C   0  0  0  0  0  0  0  0  0  0  0  0
    7.8300    6.4986   -1.6903 C   0  0  0  0  0  0  0  0  0  0  0  0
    7.9121    7.7045   -1.5384 O   0  0  0  0  0  0  0  0  0  0  0  0
    9.7912    6.5803   -3.3248 C   0  0  0  0  0  0  0  0  0  0  0  0
   11.0501    6.7759   -2.7554 C   0  0  0  0  0  0  0  0  0  0  0  0
   12.0127    7.4880   -3.4437 C   0  0  0  0  0  0  0  0  0  0  0  0
   11.7277    8.0159   -4.6901 C   0  0  0  0  0  0  0  0  0  0  0  0
   10.4800    7.8305   -5.2577 C   0  0  0  0  0  0  0  0  0  0  0  0
    9.5101    7.1158   -4.5824 C   0  0  0  0  0  0  0  0  0  0  0  0
    7.9445    6.8847   -5.2961 Cl  0  0  0  0  0  0  0  0  0  0  0  0
   11.4074    6.1204   -1.1881 Cl  0  0  0  0  0  0  0  0  0  0  0  0
    4.7835    1.5979   -0.0364 N   0  0  0  0  0  0  0  0  0  0  0  0
    4.7780    0.2015   -0.1343 C   0  0  0  0  0  0  0  0  0  0  0  0
    3.5733   -0.4845   -0.2159 C   0  0  0  0  0  0  0  0  0  0  0  0
    3.5689   -1.8617   -0.3168 C   0  0  0  0  0  0  0  0  0  0  0  0
    4.7671   -2.5606   -0.3270 C   0  0  0  0  0  0  0  0  0  0  0  0
    5.9708   -1.8766   -0.2402 C   0  0  0  0  0  0  0  0  0  0  0  0
    5.9771   -0.4990   -0.1441 C   0  0  0  0  0  0  0  0  0  0  0  0
    4.7618   -3.9172   -0.4216 O   0  0  0  0  0  0  0  0  0  0  0  0
    3.4867   -4.5565   -0.5076 C   0  0  0  0  0  0  0  0  0  0  0  0
    3.6810   -6.0709   -0.6067 C   0  0  0  0  0  0  0  0  0  0  0  0
    2.3158   -6.7553   -0.6987 C   0  0  0  0  0  0  0  0  0  0  0  0
    3.1589   -8.5745   -2.0569 C   0  0  0  0  0  0  0  0  0  0  0  0
    3.4064  -10.0846   -2.0822 C   0  0  0  0  0  0  0  0  0  0  0  0
    1.4696  -10.4256   -0.6710 C   0  0  0  0  0  0  0  0  0  0  0  0
    1.2222   -8.9154   -0.6458 C   0  0  0  0  0  0  0  0  0  0  0  0
    2.3128  -12.2447   -2.0292 C   0  0  0  0  0  0  0  0  0  0  0  0
    6.4044    6.5233    0.8860 H   0  0  0  0  0  0  0  0  0  0  0  0
    5.8184    7.5160   -0.4703 H   0  0  0  0  0  0  0  0  0  0  0  0
    5.0209    5.9711   -0.0884 H   0  0  0  0  0  0  0  0  0  0  0  0
    5.1284    4.1996    0.1654 H   0  0  0  0  0  0  0  0  0  0  0  0
    8.1770    1.8212   -2.8617 H   0  0  0  0  0  0  0  0  0  0  0  0
    9.3268    3.9389   -3.4311 H   0  0  0  0  0  0  0  0  0  0  0  0
   12.9889    7.6364   -3.0061 H   0  0  0  0  0  0  0  0  0  0  0  0
   12.4827    8.5755   -5.2223 H   0  0  0  0  0  0  0  0  0  0  0  0
   10.2638    8.2452   -6.2312 H   0  0  0  0  0  0  0  0  0  0  0  0
    4.1145    2.0490    0.5019 H   0  0  0  0  0  0  0  0  0  0  0  0
    2.6402    0.0592   -0.2043 H   0  0  0  0  0  0  0  0  0  0  0  0
    2.6323   -2.3951   -0.3844 H   0  0  0  0  0  0  0  0  0  0  0  0
    6.9032   -2.4215   -0.2474 H   0  0  0  0  0  0  0  0  0  0  0  0
    6.9143    0.0334   -0.0769 H   0  0  0  0  0  0  0  0  0  0  0  0
    2.9022   -4.3227    0.3823 H   0  0  0  0  0  0  0  0  0  0  0  0
    2.9600   -4.1991   -1.3924 H   0  0  0  0  0  0  0  0  0  0  0  0
    4.2655   -6.3047   -1.4965 H   0  0  0  0  0  0  0  0  0  0  0  0
    4.2077   -6.4282    0.2782 H   0  0  0  0  0  0  0  0  0  0  0  0
    1.7314   -6.5215    0.1911 H   0  0  0  0  0  0  0  0  0  0  0  0
    1.7891   -6.3980   -1.5836 H   0  0  0  0  0  0  0  0  0  0  0  0
    2.5177   -8.2970   -2.8936 H   0  0  0  0  0  0  0  0  0  0  0  0
    4.1103   -8.0487   -2.1376 H   0  0  0  0  0  0  0  0  0  0  0  0
    4.0696  -10.3582   -1.2616 H   0  0  0  0  0  0  0  0  0  0  0  0
    3.8670  -10.3619   -3.0304 H   0  0  0  0  0  0  0  0  0  0  0  0
    2.1109  -10.7030    0.1656 H   0  0  0  0  0  0  0  0  0  0  0  0
    0.5183  -10.9514   -0.5900 H   0  0  0  0  0  0  0  0  0  0  0  0
    0.7615   -8.6382    0.3024 H   0  0  0  0  0  0  0  0  0  0  0  0
    0.5589   -8.6419   -1.4664 H   0  0  0  0  0  0  0  0  0  0  0  0
    1.3425  -12.7393   -1.9839 H   0  0  0  0  0  0  0  0  0  0  0  0
    2.8006  -12.4874   -2.9733 H   0  0  0  0  0  0  0  0  0  0  0  0
    2.9337  -12.5863   -1.2011 H   0  0  0  0  0  0  0  0  0  0  0  0
    2.5191   -8.2179   -0.7732 N   0  3  0  0  0  0  0  0  0  0  0  0
    3.1320   -8.5092   -0.0026 H   0  0  0  0  0  0  0  0  0  0  0  0
    2.1094  -10.7822   -1.9547 N   0  3  0  0  0  0  0  0  0  0  0  0
    1.4965  -10.4909   -2.7253 H   0  0  0  0  0  0  0  0  0  0  0  0
  1  2  1  0  0  0  0
  1 37  1  0  0  0  0
  1 38  1  0  0  0  0
  1 39  1  0  0  0  0
  2 11  1  0  0  0  0
  2  3  1  0  0  0  0
  3  8  2  0  0  0  0
  3  4  1  0  0  0  0
  4  5  2  0  0  0  0
  4 40  1  0  0  0  0
  5  6  1  0  0  0  0
  5 21  1  0  0  0  0
  6  7  2  0  0  0  0
  7  8  1  0  0  0  0
  7 41  1  0  0  0  0
  8  9  1  0  0  0  0
  9 10  2  0  0  0  0
  9 42  1  0  0  0  0
 10 11  1  0  0  0  0
 10 13  1  0  0  0  0
 11 12  2  0  0  0  0
 13 18  2  0  0  0  0
 13 14  1  0  0  0  0
 14 15  2  0  0  0  0
 14 20  1  0  0  0  0
 15 16  1  0  0  0  0
 15 43  1  0  0  0  0
 16 17  2  0  0  0  0
 16 44  1  0  0  0  0
 17 18  1  0  0  0  0
 17 45  1  0  0  0  0
 18 19  1  0  0  0  0
 21 22  1  0  0  0  0
 21 46  1  0  0  0  0
 22 27  2  0  0  0  0
 22 23  1  0  0  0  0
 23 24  2  0  0  0  0
 23 47  1  0  0  0  0
 24 25  1  0  0  0  0
 24 48  1  0  0  0  0
 25 26  2  0  0  0  0
 25 28  1  0  0  0  0
 26 27  1  0  0  0  0
 26 49  1  0  0  0  0
 27 50  1  0  0  0  0
 28 29  1  0  0  0  0
 29 30  1  0  0  0  0
 29 51  1  0  0  0  0
 29 52  1  0  0  0  0
 30 31  1  0  0  0  0
 30 53  1  0  0  0  0
 30 54  1  0  0  0  0
 31 55  1  0  0  0  0
 31 56  1  0  0  0  0
 31 68  1  0  0  0  0
 32 33  1  0  0  0  0
 32 57  1  0  0  0  0
 32 58  1  0  0  0  0
 32 68  1  0  0  0  0
 33 59  1  0  0  0  0
 33 60  1  0  0  0  0
 33 70  1  0  0  0  0
 34 35  1  0  0  0  0
 34 61  1  0  0  0  0
 34 62  1  0  0  0  0
 34 70  1  0  0  0  0
 35 63  1  0  0  0  0
 35 64  1  0  0  0  0
 35 68  1  0  0  0  0
 36 65  1  0  0  0  0
 36 66  1  0  0  0  0
 36 67  1  0  0  0  0
 36 70  1  0  0  0  0
 68 69  1  0  0  0  0
 70 71  1  0  0  0  0
M  CHG  2  68   1  70   1
M  END
$$$$
ZINC03815517
  -OEChem-08230709403D

 64 67  0     0  0  0  0  0  0999 V2000
    2.1337   -7.2540    1.5393 C   0  0  0  0  0  0  0  0  0  0  0  0
    3.3723   -6.3811    1.7516 C   0  0  0  0  0  0  0  0  0  0  0  0
    4.7329   -7.9270    0.4781 C   0  0  0  0  0  0  0  0  0  0  0  0
    5.7036   -8.2566    1.6138 C   0  0  0  0  0  0  0  0  0  0  0  0
    3.6500   -6.0682   -0.6333 C   0  0  0  0  0  0  0  0  0  0  0  0
    3.4202   -4.5578   -0.5518 C   0  0  0  0  0  0  0  0  0  0  0  0
    4.6804   -3.8866   -0.4932 O   0  0  0  0  0  0  0  0  0  0  0  0
    4.6539   -2.5291   -0.4170 C   0  0  0  0  0  0  0  0  0  0  0  0
    5.8416   -1.8150   -0.3571 C   0  0  0  0  0  0  0  0  0  0  0  0
    5.8157   -0.4365   -0.2793 C   0  0  0  0  0  0  0  0  0  0  0  0
    4.6001    0.2348   -0.2614 C   0  0  0  0  0  0  0  0  0  0  0  0
    3.4114   -0.4813   -0.3161 C   0  0  0  0  0  0  0  0  0  0  0  0
    3.4393   -1.8594   -0.3987 C   0  0  0  0  0  0  0  0  0  0  0  0
    4.5729    1.6322   -0.1825 N   0  0  0  0  0  0  0  0  0  0  0  0
    5.5130    2.3844   -0.8722 C   0  0  0  0  0  0  0  0  0  0  0  0
    5.5507    3.7601   -0.6897 C   0  0  0  0  0  0  0  0  0  0  0  0
    6.4962    4.5037   -1.3853 C   0  0  0  0  0  0  0  0  0  0  0  0
    7.3803    3.8224   -2.2508 C   0  0  0  0  0  0  0  0  0  0  0  0
    8.3566    4.5463   -2.9754 C   0  0  0  0  0  0  0  0  0  0  0  0
    8.4274    5.9043   -2.8234 C   0  0  0  0  0  0  0  0  0  0  0  0
    7.4907    6.5808   -1.9233 C   0  0  0  0  0  0  0  0  0  0  0  0
    7.5449    7.7903   -1.7886 O   0  0  0  0  0  0  0  0  0  0  0  0
    6.5733    5.8697   -1.2387 N   0  0  0  0  0  0  0  0  0  0  0  0
    5.6469    6.5572   -0.3358 C   0  0  0  0  0  0  0  0  0  0  0  0
    9.4399    6.6863   -3.5706 C   0  0  0  0  0  0  0  0  0  0  0  0
   10.6976    6.9187   -3.0125 C   0  0  0  0  0  0  0  0  0  0  0  0
   11.6391    7.6432   -3.7170 C   0  0  0  0  0  0  0  0  0  0  0  0
   11.3334    8.1483   -4.9680 C   0  0  0  0  0  0  0  0  0  0  0  0
   10.0865    7.9268   -5.5242 C   0  0  0  0  0  0  0  0  0  0  0  0
    9.1380    7.1986   -4.8330 C   0  0  0  0  0  0  0  0  0  0  0  0
    7.5736    6.9218   -5.5329 Cl  0  0  0  0  0  0  0  0  0  0  0  0
   11.0806    6.2923   -1.4394 Cl  0  0  0  0  0  0  0  0  0  0  0  0
    7.2722    2.4320   -2.3758 C   0  0  0  0  0  0  0  0  0  0  0  0
    6.3594    1.7741   -1.6948 N   0  0  0  0  0  0  0  0  0  0  0  0
    1.4093   -7.0550    2.3291 H   0  0  0  0  0  0  0  0  0  0  0  0
    1.6884   -7.0237    0.5714 H   0  0  0  0  0  0  0  0  0  0  0  0
    2.4210   -8.3051    1.5662 H   0  0  0  0  0  0  0  0  0  0  0  0
    3.8815   -6.6890    2.6648 H   0  0  0  0  0  0  0  0  0  0  0  0
    3.0706   -5.3373    1.8380 H   0  0  0  0  0  0  0  0  0  0  0  0
    3.8726   -8.5942    0.5302 H   0  0  0  0  0  0  0  0  0  0  0  0
    5.2365   -8.0576   -0.4797 H   0  0  0  0  0  0  0  0  0  0  0  0
    6.1185   -9.2527    1.4596 H   0  0  0  0  0  0  0  0  0  0  0  0
    6.5111   -7.5245    1.6256 H   0  0  0  0  0  0  0  0  0  0  0  0
    5.1728   -8.2275    2.5654 H   0  0  0  0  0  0  0  0  0  0  0  0
    2.6941   -6.5745   -0.7673 H   0  0  0  0  0  0  0  0  0  0  0  0
    4.3011   -6.2916   -1.4784 H   0  0  0  0  0  0  0  0  0  0  0  0
    2.8430   -4.3259    0.3433 H   0  0  0  0  0  0  0  0  0  0  0  0
    2.8723   -4.2256   -1.4336 H   0  0  0  0  0  0  0  0  0  0  0  0
    6.7869   -2.3372   -0.3710 H   0  0  0  0  0  0  0  0  0  0  0  0
    6.7405    0.1194   -0.2326 H   0  0  0  0  0  0  0  0  0  0  0  0
    2.4656    0.0398   -0.2977 H   0  0  0  0  0  0  0  0  0  0  0  0
    2.5151   -2.4163   -0.4450 H   0  0  0  0  0  0  0  0  0  0  0  0
    3.8968    2.0746    0.3542 H   0  0  0  0  0  0  0  0  0  0  0  0
    4.8571    4.2442   -0.0181 H   0  0  0  0  0  0  0  0  0  0  0  0
    9.0371    4.0337   -3.6392 H   0  0  0  0  0  0  0  0  0  0  0  0
    6.0820    6.6071    0.6623 H   0  0  0  0  0  0  0  0  0  0  0  0
    5.4636    7.5669   -0.7032 H   0  0  0  0  0  0  0  0  0  0  0  0
    4.7056    6.0091   -0.2948 H   0  0  0  0  0  0  0  0  0  0  0  0
   12.6145    7.8197   -3.2883 H   0  0  0  0  0  0  0  0  0  0  0  0
   12.0715    8.7183   -5.5126 H   0  0  0  0  0  0  0  0  0  0  0  0
    9.8541    8.3239   -6.5014 H   0  0  0  0  0  0  0  0  0  0  0  0
    7.9409    1.8977   -3.0344 H   0  0  0  0  0  0  0  0  0  0  0  0
    4.3047   -6.5187    0.6130 N   0  3  0  0  0  0  0  0  0  0  0  0
    5.1308   -5.9341    0.7858 H   0  0  0  0  0  0  0  0  0  0  0  0
  1  2  1  0  0  0  0
  1 35  1  0  0  0  0
  1 36  1  0  0  0  0
  1 37  1  0  0  0  0
  2 38  1  0  0  0  0
  2 39  1  0  0  0  0
  2 63  1  0  0  0  0
  3  4  1  0  0  0  0
  3 40  1  0  0  0  0
  3 41  1  0  0  0  0
  3 63  1  0  0  0  0
  4 42  1  0  0  0  0
  4 43  1  0  0  0  0
  4 44  1  0  0  0  0
  5  6  1  0  0  0  0
  5 45  1  0  0  0  0
  5 46  1  0  0  0  0
  5 63  1  0  0  0  0
  6  7  1  0  0  0  0
  6 47  1  0  0  0  0
  6 48  1  0  0  0  0
  7  8  1  0  0  0  0
  8 13  2  0  0  0  0
  8  9  1  0  0  0  0
  9 10  2  0  0  0  0
  9 49  1  0  0  0  0
 10 11  1  0  0  0  0
 10 50  1  0  0  0  0
 11 12  2  0  0  0  0
 11 14  1  0  0  0  0
 12 13  1  0  0  0  0
 12 51  1  0  0  0  0
 13 52  1  0  0  0  0
 14 15  1  0  0  0  0
 14 53  1  0  0  0  0
 15 34  2  0  0  0  0
 15 16  1  0  0  0  0
 16 17  2  0  0  0  0
 16 54  1  0  0  0  0
 17 23  1  0  0  0  0
 17 18  1  0  0  0  0
 18 19  1  0  0  0  0
 18 33  2  0  0  0  0
 19 20  2  0  0  0  0
 19 55  1  0  0  0  0
 20 21  1  0  0  0  0
 20 25  1  0  0  0  0
 21 22  2  0  0  0  0
 21 23  1  0  0  0  0
 23 24  1  0  0  0  0
 24 56  1  0  0  0  0
 24 57  1  0  0  0  0
 24 58  1  0  0  0  0
 25 30  2  0  0  0  0
 25 26  1  0  0  0  0
 26 27  2  0  0  0  0
 26 32  1  0  0  0  0
 27 28  1  0  0  0  0
 27 59  1  0  0  0  0
 28 29  2  0  0  0  0
 28 60  1  0  0  0  0
 29 30  1  0  0  0  0
 29 61  1  0  0  0  0
 30 31  1  0  0  0  0
 33 34  1  0  0  0  0
 33 62  1  0  0  0  0
 63 64  1  0  0  0  0
M  CHG  1  63   1
M  END
$$$$
ZINC03815520
  -OEChem-08230709403D

 42 45  0     0  0  0  0  0  0999 V2000
    2.0709    8.2772    0.4276 C   0  0  0  0  0  0  0  0  0  0  0  0
    3.3654    7.5914    0.4148 N   0  0  0  0  0  0  0  0  0  0  0  0
    3.4085    6.2243    0.3059 C   0  0  0  0  0  0  0  0  0  0  0  0
    4.6476    5.5480    0.2920 C   0  0  0  0  0  0  0  0  0  0  0  0
    5.8559    6.2749    0.3904 C   0  0  0  0  0  0  0  0  0  0  0  0
    5.8030    7.6389    0.4978 C   0  0  0  0  0  0  0  0  0  0  0  0
    4.5011    8.3093    0.5096 C   0  0  0  0  0  0  0  0  0  0  0  0
    4.4450    9.5224    0.6053 O   0  0  0  0  0  0  0  0  0  0  0  0
    7.0517    8.4294    0.6022 C   0  0  0  0  0  0  0  0  0  0  0  0
    7.6001    8.7111    1.8540 C   0  0  0  0  0  0  0  0  0  0  0  0
    8.7666    9.4453    1.9441 C   0  0  0  0  0  0  0  0  0  0  0  0
    9.3860    9.9087    0.7974 C   0  0  0  0  0  0  0  0  0  0  0  0
    8.8450    9.6370   -0.4464 C   0  0  0  0  0  0  0  0  0  0  0  0
    7.6814    8.9002   -0.5507 C   0  0  0  0  0  0  0  0  0  0  0  0
    7.0034    8.5613   -2.1124 Cl  0  0  0  0  0  0  0  0  0  0  0  0
    6.8210    8.1355    3.2946 Cl  0  0  0  0  0  0  0  0  0  0  0  0
    4.6477    4.1496    0.1787 C   0  0  0  0  0  0  0  0  0  0  0  0
    3.4895    3.5229    0.0897 N   0  0  0  0  0  0  0  0  0  0  0  0
    2.3421    4.1926    0.1060 C   0  0  0  0  0  0  0  0  0  0  0  0
    2.2918    5.5122    0.2062 N   0  0  0  0  0  0  0  0  0  0  0  0
    1.1585    3.4870    0.0093 N   0  0  0  0  0  0  0  0  0  0  0  0
    1.1757    2.0869    0.0133 C   0  0  0  0  0  0  0  0  0  0  0  0
    2.1234    1.4060    0.7660 C   0  0  0  0  0  0  0  0  0  0  0  0
    2.1394    0.0252    0.7698 C   0  0  0  0  0  0  0  0  0  0  0  0
    1.2089   -0.6817    0.0223 C   0  0  0  0  0  0  0  0  0  0  0  0
    0.2619   -0.0022   -0.7299 C   0  0  0  0  0  0  0  0  0  0  0  0
    0.2448    1.3786   -0.7351 C   0  0  0  0  0  0  0  0  0  0  0  0
    1.2247   -2.0414    0.0273 O   0  0  0  0  0  0  0  0  0  0  0  0
    1.7162    8.3647    1.4546 H   0  0  0  0  0  0  0  0  0  0  0  0
    2.1823    9.2718   -0.0042 H   0  0  0  0  0  0  0  0  0  0  0  0
    1.3510    7.7055   -0.1580 H   0  0  0  0  0  0  0  0  0  0  0  0
    6.8065    5.7624    0.3799 H   0  0  0  0  0  0  0  0  0  0  0  0
    9.1939    9.6612    2.9121 H   0  0  0  0  0  0  0  0  0  0  0  0
   10.2958   10.4856    0.8735 H   0  0  0  0  0  0  0  0  0  0  0  0
    9.3333   10.0020   -1.3378 H   0  0  0  0  0  0  0  0  0  0  0  0
    5.5758    3.5975    0.1643 H   0  0  0  0  0  0  0  0  0  0  0  0
    0.3154    3.9615   -0.0615 H   0  0  0  0  0  0  0  0  0  0  0  0
    2.8449    1.9561    1.3519 H   0  0  0  0  0  0  0  0  0  0  0  0
    2.8763   -0.5046    1.3552 H   0  0  0  0  0  0  0  0  0  0  0  0
   -0.4620   -0.5533   -1.3119 H   0  0  0  0  0  0  0  0  0  0  0  0
   -0.4923    1.9074   -1.3211 H   0  0  0  0  0  0  0  0  0  0  0  0
    0.6779   -2.4386    0.7189 H   0  0  0  0  0  0  0  0  0  0  0  0
  1  2  1  0  0  0  0
  1 29  1  0  0  0  0
  1 30  1  0  0  0  0
  1 31  1  0  0  0  0
  2  7  1  0  0  0  0
  2  3  1  0  0  0  0
  3 20  2  0  0  0  0
  3  4  1  0  0  0  0
  4  5  1  0  0  0  0
  4 17  2  0  0  0  0
  5  6  2  0  0  0  0
  5 32  1  0  0  0  0
  6  7  1  0  0  0  0
  6  9  1  0  0  0  0
  7  8  2  0  0  0  0
  9 14  2  0  0  0  0
  9 10  1  0  0  0  0
 10 11  2  0  0  0  0
 10 16  1  0  0  0  0
 11 12  1  0  0  0  0
 11 33  1  0  0  0  0
 12 13  2  0  0  0  0
 12 34  1  0  0  0  0
 13 14  1  0  0  0  0
 13 35  1  0  0  0  0
 14 15  1  0  0  0  0
 17 18  1  0  0  0  0
 17 36  1  0  0  0  0
 18 19  2  0  0  0  0
 19 20  1  0  0  0  0
 19 21  1  0  0  0  0
 21 22  1  0  0  0  0
 21 37  1  0  0  0  0
 22 27  2  0  0  0  0
 22 23  1  0  0  0  0
 23 24  2  0  0  0  0
 23 38  1  0  0  0  0
 24 25  1  0  0  0  0
 24 39  1  0  0  0  0
 25 26  2  0  0  0  0
 25 28  1  0  0  0  0
 26 27  1  0  0  0  0
 26 40  1  0  0  0  0
 27 41  1  0  0  0  0
 28 42  1  0  0  0  0
M  END
$$$$
ZINC03815526
  -OEChem-08230709403D

 45 47  0     0  0  0  0  0  0999 V2000
   -1.0888    7.6771    1.3060 C   0  0  0  0  0  0  0  0  0  0  0  0
   -0.3116    8.0808    0.0514 C   0  0  0  0  0  0  0  0  0  0  0  0
   -0.0834    9.5937    0.0577 C   0  0  0  0  0  0  0  0  0  0  0  0
   -1.1129    7.6911   -1.1924 C   0  0  0  0  0  0  0  0  0  0  0  0
    0.9813    7.3920    0.0351 N   0  0  0  0  0  0  0  0  0  0  0  0
    1.0271    6.0451    0.0271 C   0  0  0  0  0  0  0  0  0  0  0  0
   -0.0044    5.4017    0.0334 O   0  0  0  0  0  0  0  0  0  0  0  0
    2.2165    5.4113    0.0120 N   0  0  0  0  0  0  0  0  0  0  0  0
    2.2637    4.0248    0.0038 C   0  0  0  0  0  0  0  0  0  0  0  0
    3.5175    3.3772   -0.0119 C   0  0  0  0  0  0  0  0  0  0  0  0
    3.5691    1.9925   -0.0207 C   0  0  0  0  0  0  0  0  0  0  0  0
    2.3538    1.2883   -0.0135 C   0  0  0  0  0  0  0  0  0  0  0  0
    2.3093   -0.1164   -0.0211 C   0  0  0  0  0  0  0  0  0  0  0  0
    1.1319   -0.7080   -0.0130 N   0  0  0  0  0  0  0  0  0  0  0  0
    0.0021   -0.0041    0.0020 C   0  0  0  0  0  0  0  0  0  0  0  0
   -0.0158    1.3152    0.0093 N   0  0  0  0  0  0  0  0  0  0  0  0
    1.1301    2.0077    0.0021 C   0  0  0  0  0  0  0  0  0  0  0  0
    1.1371    3.3420    0.0104 N   0  0  0  0  0  0  0  0  0  0  0  0
   -1.2016   -0.6831    0.0099 N   0  0  0  0  0  0  0  0  0  0  0  0
    4.7691    4.1719   -0.0195 C   0  0  0  0  0  0  0  0  0  0  0  0
    5.3486    4.5545   -1.2295 C   0  0  0  0  0  0  0  0  0  0  0  0
    6.5146    5.2946   -1.2298 C   0  0  0  0  0  0  0  0  0  0  0  0
    7.1078    5.6565   -0.0335 C   0  0  0  0  0  0  0  0  0  0  0  0
    6.5381    5.2802    1.1692 C   0  0  0  0  0  0  0  0  0  0  0  0
    5.3689    4.5448    1.1828 C   0  0  0  0  0  0  0  0  0  0  0  0
    4.5876    4.0380    2.8286 Br  0  0  0  0  0  0  0  0  0  0  0  0
    4.6059    4.1008   -2.7316 Cl  0  0  0  0  0  0  0  0  0  0  0  0
   -0.5179    7.9547    2.1921 H   0  0  0  0  0  0  0  0  0  0  0  0
   -2.0507    8.1896    1.3181 H   0  0  0  0  0  0  0  0  0  0  0  0
   -1.2514    6.5993    1.3015 H   0  0  0  0  0  0  0  0  0  0  0  0
    0.4703    9.8814   -0.8360 H   0  0  0  0  0  0  0  0  0  0  0  0
   -1.0453   10.1062    0.0699 H   0  0  0  0  0  0  0  0  0  0  0  0
    0.4875    9.8714    0.9438 H   0  0  0  0  0  0  0  0  0  0  0  0
   -1.2755    6.6133   -1.1968 H   0  0  0  0  0  0  0  0  0  0  0  0
   -2.0748    8.2036   -1.1802 H   0  0  0  0  0  0  0  0  0  0  0  0
   -0.5592    7.9788   -2.0861 H   0  0  0  0  0  0  0  0  0  0  0  0
    1.8043    7.9053    0.0300 H   0  0  0  0  0  0  0  0  0  0  0  0
    3.0395    5.9247    0.0070 H   0  0  0  0  0  0  0  0  0  0  0  0
    4.5146    1.4707   -0.0331 H   0  0  0  0  0  0  0  0  0  0  0  0
    3.2195   -0.6978   -0.0336 H   0  0  0  0  0  0  0  0  0  0  0  0
   -2.0367   -0.1897    0.0205 H   0  0  0  0  0  0  0  0  0  0  0  0
   -1.2113   -1.6530    0.0048 H   0  0  0  0  0  0  0  0  0  0  0  0
    6.9645    5.5912   -2.1658 H   0  0  0  0  0  0  0  0  0  0  0  0
    8.0193    6.2356   -0.0389 H   0  0  0  0  0  0  0  0  0  0  0  0
    7.0059    5.5658    2.0997 H   0  0  0  0  0  0  0  0  0  0  0  0
  1  2  1  0  0  0  0
  1 28  1  0  0  0  0
  1 29  1  0  0  0  0
  1 30  1  0  0  0  0
  2  3  1  0  0  0  0
  2  4  1  0  0  0  0
  2  5  1  0  0  0  0
  3 31  1  0  0  0  0
  3 32  1  0  0  0  0
  3 33  1  0  0  0  0
  4 34  1  0  0  0  0
  4 35  1  0  0  0  0
  4 36  1  0  0  0  0
  5  6  1  0  0  0  0
  5 37  1  0  0  0  0
  6  7  2  0  0  0  0
  6  8  1  0  0  0  0
  8  9  1  0  0  0  0
  8 38  1  0  0  0  0
  9 18  2  0  0  0  0
  9 10  1  0  0  0  0
 10 11  2  0  0  0  0
 10 20  1  0  0  0  0
 11 12  1  0  0  0  0
 11 39  1  0  0  0  0
 12 17  2  0  0  0  0
 12 13  1  0  0  0  0
 13 14  2  0  0  0  0
 13 40  1  0  0  0  0
 14 15  1  0  0  0  0
 15 16  2  0  0  0  0
 15 19  1  0  0  0  0
 16 17  1  0  0  0  0
 17 18  1  0  0  0  0
 19 41  1  0  0  0  0
 19 42  1  0  0  0  0
 20 25  2  0  0  0  0
 20 21  1  0  0  0  0
 21 22  2  0  0  0  0
 21 27  1  0  0  0  0
 22 23  1  0  0  0  0
 22 43  1  0  0  0  0
 23 24  2  0  0  0  0
 23 44  1  0  0  0  0
 24 25  1  0  0  0  0
 24 45  1  0  0  0  0
 25 26  1  0  0  0  0
M  END
$$$$
ZINC03815527
  -OEChem-08230709403D

 49 52  0     0  0  0  0  0  0999 V2000
   -1.2722    2.1495   -1.3931 C   0  0  0  0  0  0  0  0  0  0  0  0
   -0.1060    1.7142   -1.9896 C   0  0  0  0  0  0  0  0  0  0  0  0
    1.0975    2.3556   -1.7191 C   0  0  0  0  0  0  0  0  0  0  0  0
    1.1067    3.4408   -0.8316 C   0  0  0  0  0  0  0  0  0  0  0  0
   -0.0730    3.8679   -0.2314 C   0  0  0  0  0  0  0  0  0  0  0  0
   -1.2582    3.2182   -0.5127 C   0  0  0  0  0  0  0  0  0  0  0  0
   -2.7564    3.7546    0.2438 S   0  0  0  0  0  0  0  0  0  0  0  0
   -3.6365    2.6389    0.2378 O   0  0  0  0  0  0  0  0  0  0  0  0
   -2.3890    4.4286    1.4396 O   0  0  0  0  0  0  0  0  0  0  0  0
   -3.4285    4.8928   -0.7537 N   0  0  0  0  0  0  0  0  0  0  0  0
    2.5106    3.9014   -0.7512 C   0  0  0  0  0  0  0  0  0  0  0  0
    3.0102    4.9474    0.0009 C   0  0  0  0  0  0  0  0  0  0  0  0
    4.4026    5.1542    0.0838 C   0  0  0  0  0  0  0  0  0  0  0  0
    5.0459    6.3797    0.1896 C   0  0  0  0  0  0  0  0  0  0  0  0
    6.4103    6.1182    0.2427 C   0  0  0  0  0  0  0  0  0  0  0  0
    6.5864    4.7699    0.1702 C   0  0  0  0  0  0  0  0  0  0  0  0
    5.3749    4.1749    0.0807 N   0  0  0  0  0  0  0  0  0  0  0  0
    5.2162    3.2198    0.0218 H   0  0  0  0  0  0  0  0  0  0  0  0
    7.9380    4.0960    0.1951 C   0  0  0  0  0  0  0  0  0  0  0  0
    9.0098    5.1492   -0.1092 C   0  0  0  0  0  0  0  0  0  0  0  0
    8.8020    6.3672    0.7949 C   0  0  0  0  0  0  0  0  0  0  0  0
    7.5359    7.1157    0.3607 C   0  0  0  0  0  0  0  0  0  0  0  0
    4.3901    7.7357    0.2372 C   0  0  0  0  0  0  0  0  0  0  0  0
    4.0958    8.1091    1.6915 C   0  0  0  0  0  0  0  0  0  0  0  0
    3.4400    9.4651    1.7391 C   0  0  0  0  0  0  0  0  0  0  0  0
    3.2296   10.0707    0.7149 O   0  0  0  0  0  0  0  0  0  0  0  0
    3.2581    3.0059   -1.6433 C   0  0  0  0  0  0  0  0  0  0  0  0
    4.4559    3.0496   -1.8617 O   0  0  0  0  0  0  0  0  0  0  0  0
    2.3897    2.1303   -2.1771 N   0  0  0  0  0  0  0  0  0  0  0  0
   -2.2039    1.6489   -1.6117 H   0  0  0  0  0  0  0  0  0  0  0  0
   -0.1291    0.8767   -2.6712 H   0  0  0  0  0  0  0  0  0  0  0  0
   -0.0619    4.7041    0.4520 H   0  0  0  0  0  0  0  0  0  0  0  0
   -2.9831    5.1372   -1.5800 H   0  0  0  0  0  0  0  0  0  0  0  0
   -4.2675    5.3152   -0.5117 H   0  0  0  0  0  0  0  0  0  0  0  0
    2.3342    5.6066    0.5253 H   0  0  0  0  0  0  0  0  0  0  0  0
    7.9704    3.3105   -0.5599 H   0  0  0  0  0  0  0  0  0  0  0  0
    8.1155    3.6658    1.1808 H   0  0  0  0  0  0  0  0  0  0  0  0
    8.9331    5.4543   -1.1528 H   0  0  0  0  0  0  0  0  0  0  0  0
    9.9973    4.7256    0.0735 H   0  0  0  0  0  0  0  0  0  0  0  0
    9.6626    7.0311    0.7135 H   0  0  0  0  0  0  0  0  0  0  0  0
    8.6933    6.0383    1.8284 H   0  0  0  0  0  0  0  0  0  0  0  0
    7.7049    7.5943   -0.6039 H   0  0  0  0  0  0  0  0  0  0  0  0
    7.2816    7.8697    1.1056 H   0  0  0  0  0  0  0  0  0  0  0  0
    5.0578    8.4778   -0.2005 H   0  0  0  0  0  0  0  0  0  0  0  0
    3.4577    7.7084   -0.3267 H   0  0  0  0  0  0  0  0  0  0  0  0
    3.4281    7.3670    2.1291 H   0  0  0  0  0  0  0  0  0  0  0  0
    5.0282    8.1364    2.2554 H   0  0  0  0  0  0  0  0  0  0  0  0
    2.6339    1.4303   -2.8026 H   0  0  0  0  0  0  0  0  0  0  0  0
    3.0896   10.0001    2.9192 O   0  5  0  0  0  0  0  0  0  0  0  0
  1  6  2  0  0  0  0
  1  2  1  0  0  0  0
  1 30  1  0  0  0  0
  2  3  2  0  0  0  0
  2 31  1  0  0  0  0
  3 29  1  0  0  0  0
  3  4  1  0  0  0  0
  4  5  2  0  0  0  0
  4 11  1  0  0  0  0
  5  6  1  0  0  0  0
  5 32  1  0  0  0  0
  6  7  1  0  0  0  0
  7  8  2  0  0  0  0
  7  9  2  0  0  0  0
  7 10  1  0  0  0  0
 10 33  1  0  0  0  0
 10 34  1  0  0  0  0
 11 12  2  0  0  0  0
 11 27  1  0  0  0  0
 12 13  1  0  0  0  0
 12 35  1  0  0  0  0
 13 17  1  0  0  0  0
 13 14  2  0  0  0  0
 14 15  1  0  0  0  0
 14 23  1  0  0  0  0
 15 22  1  0  0  0  0
 15 16  2  0  0  0  0
 16 17  1  0  0  0  0
 16 19  1  0  0  0  0
 17 18  1  0  0  0  0
 19 20  1  0  0  0  0
 19 36  1  0  0  0  0
 19 37  1  0  0  0  0
 20 21  1  0  0  0  0
 20 38  1  0  0  0  0
 20 39  1  0  0  0  0
 21 22  1  0  0  0  0
 21 40  1  0  0  0  0
 21 41  1  0  0  0  0
 22 42  1  0  0  0  0
 22 43  1  0  0  0  0
 23 24  1  0  0  0  0
 23 44  1  0  0  0  0
 23 45  1  0  0  0  0
 24 25  1  0  0  0  0
 24 46  1  0  0  0  0
 24 47  1  0  0  0  0
 25 26  2  0  0  0  0
 25 49  1  0  0  0  0
 27 28  2  0  0  0  0
 27 29  1  0  0  0  0
 29 48  1  0  0  0  0
M  CHG  1  49  -1
M  END
$$$$
ZINC03815529
  -OEChem-08230709403D

 68 72  0     0  0  0  0  0  0999 V2000
    8.0418    5.9497   -0.5473 C   0  0  0  0  0  0  0  0  0  0  0  0
    8.9067    5.0536   -1.3186 N   0  0  0  0  0  0  0  0  0  0  0  0
    8.5795    3.7222   -1.4350 C   0  0  0  0  0  0  0  0  0  0  0  0
    7.4375    3.2089   -0.8317 C   0  0  0  0  0  0  0  0  0  0  0  0
    7.1507    1.8590   -0.9789 C   0  0  0  0  0  0  0  0  0  0  0  0
    7.9443    1.0575   -1.6819 N   0  0  0  0  0  0  0  0  0  0  0  0
    9.0356    1.4935   -2.2718 C   0  0  0  0  0  0  0  0  0  0  0  0
    9.4002    2.8422   -2.1740 C   0  0  0  0  0  0  0  0  0  0  0  0
   10.5707    3.3287   -2.8027 C   0  0  0  0  0  0  0  0  0  0  0  0
   10.8893    4.6540   -2.6823 C   0  0  0  0  0  0  0  0  0  0  0  0
   10.0135    5.5409   -1.9131 C   0  0  0  0  0  0  0  0  0  0  0  0
   10.2891    6.7227   -1.8064 O   0  0  0  0  0  0  0  0  0  0  0  0
   12.1092    5.1895   -3.3305 C   0  0  0  0  0  0  0  0  0  0  0  0
   13.3211    5.2047   -2.6389 C   0  0  0  0  0  0  0  0  0  0  0  0
   14.4557    5.7004   -3.2508 C   0  0  0  0  0  0  0  0  0  0  0  0
   14.3903    6.1908   -4.5426 C   0  0  0  0  0  0  0  0  0  0  0  0
   13.1909    6.1839   -5.2317 C   0  0  0  0  0  0  0  0  0  0  0  0
   12.0500    5.6862   -4.6332 C   0  0  0  0  0  0  0  0  0  0  0  0
   10.5456    5.6790   -5.4995 Cl  0  0  0  0  0  0  0  0  0  0  0  0
   13.4037    4.5962   -1.0151 Cl  0  0  0  0  0  0  0  0  0  0  0  0
    6.0130    1.3360   -0.3808 N   0  0  0  0  0  0  0  0  0  0  0  0
    5.7805   -0.0442   -0.4059 C   0  0  0  0  0  0  0  0  0  0  0  0
    4.4834   -0.5284   -0.5135 C   0  0  0  0  0  0  0  0  0  0  0  0
    4.2553   -1.8900   -0.5426 C   0  0  0  0  0  0  0  0  0  0  0  0
    5.3206   -2.7741   -0.4547 C   0  0  0  0  0  0  0  0  0  0  0  0
    6.6161   -2.2914   -0.3420 C   0  0  0  0  0  0  0  0  0  0  0  0
    6.8464   -0.9300   -0.3175 C   0  0  0  0  0  0  0  0  0  0  0  0
    5.0947   -4.1149   -0.4787 O   0  0  0  0  0  0  0  0  0  0  0  0
    3.7361   -4.5419   -0.5967 C   0  0  0  0  0  0  0  0  0  0  0  0
    3.6810   -6.0709   -0.6067 C   0  0  0  0  0  0  0  0  0  0  0  0
    4.5669   -7.9973    0.5634 C   0  0  0  0  0  0  0  0  0  0  0  0
    5.1438   -8.4731    1.8988 C   0  0  0  0  0  0  0  0  0  0  0  0
    3.7411   -6.8860    3.0702 C   0  0  0  0  0  0  0  0  0  0  0  0
    3.1642   -6.4102    1.7348 C   0  0  0  0  0  0  0  0  0  0  0  0
    4.6270   -8.8124    4.2403 C   0  0  0  0  0  0  0  0  0  0  0  0
    8.3690    5.9647    0.4923 H   0  0  0  0  0  0  0  0  0  0  0  0
    8.1003    6.9564   -0.9612 H   0  0  0  0  0  0  0  0  0  0  0  0
    7.0125    5.5948   -0.5992 H   0  0  0  0  0  0  0  0  0  0  0  0
    6.7844    3.8496   -0.2578 H   0  0  0  0  0  0  0  0  0  0  0  0
    9.6533    0.8088   -2.8339 H   0  0  0  0  0  0  0  0  0  0  0  0
   11.2045    2.6629   -3.3696 H   0  0  0  0  0  0  0  0  0  0  0  0
   15.3952    5.7086   -2.7183 H   0  0  0  0  0  0  0  0  0  0  0  0
   15.2796    6.5811   -5.0151 H   0  0  0  0  0  0  0  0  0  0  0  0
   13.1466    6.5683   -6.2400 H   0  0  0  0  0  0  0  0  0  0  0  0
    5.3789    1.9268    0.0548 H   0  0  0  0  0  0  0  0  0  0  0  0
    3.6535    0.1598   -0.5782 H   0  0  0  0  0  0  0  0  0  0  0  0
    3.2469   -2.2667   -0.6304 H   0  0  0  0  0  0  0  0  0  0  0  0
    7.4449   -2.9804   -0.2729 H   0  0  0  0  0  0  0  0  0  0  0  0
    7.8552   -0.5543   -0.2301 H   0  0  0  0  0  0  0  0  0  0  0  0
    3.1615   -4.1631    0.2486 H   0  0  0  0  0  0  0  0  0  0  0  0
    3.3136   -4.1570   -1.5249 H   0  0  0  0  0  0  0  0  0  0  0  0
    2.6523   -6.3964   -0.7607 H   0  0  0  0  0  0  0  0  0  0  0  0
    4.3073   -6.4517   -1.4134 H   0  0  0  0  0  0  0  0  0  0  0  0
    3.6955   -8.6002    0.3082 H   0  0  0  0  0  0  0  0  0  0  0  0
    5.3217   -8.1004   -0.2162 H   0  0  0  0  0  0  0  0  0  0  0  0
    6.0313   -7.8881    2.1406 H   0  0  0  0  0  0  0  0  0  0  0  0
    5.4117   -9.5270    1.8243 H   0  0  0  0  0  0  0  0  0  0  0  0
    4.6126   -6.2831    3.3253 H   0  0  0  0  0  0  0  0  0  0  0  0
    2.9864   -6.7825    3.8499 H   0  0  0  0  0  0  0  0  0  0  0  0
    2.8963   -5.3563    1.8093 H   0  0  0  0  0  0  0  0  0  0  0  0
    2.2766   -6.9948    1.4928 H   0  0  0  0  0  0  0  0  0  0  0  0
    3.8386   -8.7309    4.9885 H   0  0  0  0  0  0  0  0  0  0  0  0
    4.9135   -9.8579    4.1267 H   0  0  0  0  0  0  0  0  0  0  0  0
    5.4922   -8.2312    4.5593 H   0  0  0  0  0  0  0  0  0  0  0  0
    4.1934   -6.5726    0.6863 N   0  3  0  0  0  0  0  0  0  0  0  0
    5.0253   -6.0308    0.9483 H   0  0  0  0  0  0  0  0  0  0  0  0
    4.1148   -8.3108    2.9472 N   0  3  0  0  0  0  0  0  0  0  0  0
    3.2829   -8.8527    2.6851 H   0  0  0  0  0  0  0  0  0  0  0  0
  1  2  1  0  0  0  0
  1 36  1  0  0  0  0
  1 37  1  0  0  0  0
  1 38  1  0  0  0  0
  2 11  1  0  0  0  0
  2  3  1  0  0  0  0
  3  8  2  0  0  0  0
  3  4  1  0  0  0  0
  4  5  2  0  0  0  0
  4 39  1  0  0  0  0
  5  6  1  0  0  0  0
  5 21  1  0  0  0  0
  6  7  2  0  0  0  0
  7  8  1  0  0  0  0
  7 40  1  0  0  0  0
  8  9  1  0  0  0  0
  9 10  2  0  0  0  0
  9 41  1  0  0  0  0
 10 11  1  0  0  0  0
 10 13  1  0  0  0  0
 11 12  2  0  0  0  0
 13 18  2  0  0  0  0
 13 14  1  0  0  0  0
 14 15  2  0  0  0  0
 14 20  1  0  0  0  0
 15 16  1  0  0  0  0
 15 42  1  0  0  0  0
 16 17  2  0  0  0  0
 16 43  1  0  0  0  0
 17 18  1  0  0  0  0
 17 44  1  0  0  0  0
 18 19  1  0  0  0  0
 21 22  1  0  0  0  0
 21 45  1  0  0  0  0
 22 27  2  0  0  0  0
 22 23  1  0  0  0  0
 23 24  2  0  0  0  0
 23 46  1  0  0  0  0
 24 25  1  0  0  0  0
 24 47  1  0  0  0  0
 25 26  2  0  0  0  0
 25 28  1  0  0  0  0
 26 27  1  0  0  0  0
 26 48  1  0  0  0  0
 27 49  1  0  0  0  0
 28 29  1  0  0  0  0
 29 30  1  0  0  0  0
 29 50  1  0  0  0  0
 29 51  1  0  0  0  0
 30 52  1  0  0  0  0
 30 53  1  0  0  0  0
 30 65  1  0  0  0  0
 31 32  1  0  0  0  0
 31 54  1  0  0  0  0
 31 55  1  0  0  0  0
 31 65  1  0  0  0  0
 32 56  1  0  0  0  0
 32 57  1  0  0  0  0
 32 67  1  0  0  0  0
 33 34  1  0  0  0  0
 33 58  1  0  0  0  0
 33 59  1  0  0  0  0
 33 67  1  0  0  0  0
 34 60  1  0  0  0  0
 34 61  1  0  0  0  0
 34 65  1  0  0  0  0
 35 62  1  0  0  0  0
 35 63  1  0  0  0  0
 35 64  1  0  0  0  0
 35 67  1  0  0  0  0
 65 66  1  0  0  0  0
 67 68  1  0  0  0  0
M  CHG  2  65   1  67   1
M  END
$$$$
ZINC03815532
  -OEChem-08230709403D

 46 49  0     0  0  0  0  0  0999 V2000
   -1.2677    2.1516   -1.4090 C   0  0  0  0  0  0  0  0  0  0  0  0
   -0.1024    1.7178   -1.9971 C   0  0  0  0  0  0  0  0  0  0  0  0
    1.1050    2.3564   -1.7213 C   0  0  0  0  0  0  0  0  0  0  0  0
    1.1203    3.4436   -0.8321 C   0  0  0  0  0  0  0  0  0  0  0  0
   -0.0517    3.8801   -0.2335 C   0  0  0  0  0  0  0  0  0  0  0  0
   -1.2546    3.2316   -0.5189 C   0  0  0  0  0  0  0  0  0  0  0  0
   -2.5081    3.6863    0.1115 C   0  0  0  0  0  0  0  0  0  0  0  0
   -2.4949    4.6268    0.8806 O   0  0  0  0  0  0  0  0  0  0  0  0
    2.5282    3.8943   -0.7511 C   0  0  0  0  0  0  0  0  0  0  0  0
    3.0359    4.9367    0.0003 C   0  0  0  0  0  0  0  0  0  0  0  0
    4.4300    5.1330    0.0826 C   0  0  0  0  0  0  0  0  0  0  0  0
    5.0825    6.3537    0.1878 C   0  0  0  0  0  0  0  0  0  0  0  0
    6.4449    6.0818    0.2411 C   0  0  0  0  0  0  0  0  0  0  0  0
    6.6108    4.7322    0.1692 C   0  0  0  0  0  0  0  0  0  0  0  0
    5.3947    4.1465    0.0795 N   0  0  0  0  0  0  0  0  0  0  0  0
    5.2288    3.1926    0.0207 H   0  0  0  0  0  0  0  0  0  0  0  0
    7.9572    4.0481    0.1948 C   0  0  0  0  0  0  0  0  0  0  0  0
    9.0370    5.0930   -0.1097 C   0  0  0  0  0  0  0  0  0  0  0  0
    8.8382    6.3129    0.7938 C   0  0  0  0  0  0  0  0  0  0  0  0
    7.5780    7.0708    0.3590 C   0  0  0  0  0  0  0  0  0  0  0  0
    4.4370    7.7146    0.2345 C   0  0  0  0  0  0  0  0  0  0  0  0
    4.1452    8.0911    1.6885 C   0  0  0  0  0  0  0  0  0  0  0  0
    3.4997    9.4520    1.7352 C   0  0  0  0  0  0  0  0  0  0  0  0
    3.2941   10.0587    0.7107 O   0  0  0  0  0  0  0  0  0  0  0  0
    3.2677    2.9922   -1.6431 C   0  0  0  0  0  0  0  0  0  0  0  0
    4.4657    3.0256   -1.8615 O   0  0  0  0  0  0  0  0  0  0  0  0
    2.3923    2.1237   -2.1763 N   0  0  0  0  0  0  0  0  0  0  0  0
   -2.1991    1.6530   -1.6330 H   0  0  0  0  0  0  0  0  0  0  0  0
   -0.1241    0.8810   -2.6794 H   0  0  0  0  0  0  0  0  0  0  0  0
   -0.0340    4.7164    0.4496 H   0  0  0  0  0  0  0  0  0  0  0  0
    2.3651    5.6012    0.5245 H   0  0  0  0  0  0  0  0  0  0  0  0
    7.9838    3.2621   -0.5599 H   0  0  0  0  0  0  0  0  0  0  0  0
    8.1312    3.6170    1.1807 H   0  0  0  0  0  0  0  0  0  0  0  0
    8.9630    5.3982   -1.1535 H   0  0  0  0  0  0  0  0  0  0  0  0
   10.0213    4.6620    0.0735 H   0  0  0  0  0  0  0  0  0  0  0  0
    9.7038    6.9703    0.7124 H   0  0  0  0  0  0  0  0  0  0  0  0
    8.7267    5.9853    1.8274 H   0  0  0  0  0  0  0  0  0  0  0  0
    7.7509    7.5477   -0.6058 H   0  0  0  0  0  0  0  0  0  0  0  0
    7.3292    7.8271    1.1035 H   0  0  0  0  0  0  0  0  0  0  0  0
    5.1104    8.4514   -0.2034 H   0  0  0  0  0  0  0  0  0  0  0  0
    3.5046    7.6941   -0.3296 H   0  0  0  0  0  0  0  0  0  0  0  0
    3.4717    7.3543    2.1264 H   0  0  0  0  0  0  0  0  0  0  0  0
    5.0776    8.1116    2.2527 H   0  0  0  0  0  0  0  0  0  0  0  0
    2.6318    1.4218   -2.8015 H   0  0  0  0  0  0  0  0  0  0  0  0
   -3.6678    3.0588   -0.1656 O   0  5  0  0  0  0  0  0  0  0  0  0
    3.1531    9.9903    2.9150 O   0  5  0  0  0  0  0  0  0  0  0  0
  1  6  2  0  0  0  0
  1  2  1  0  0  0  0
  1 28  1  0  0  0  0
  2  3  2  0  0  0  0
  2 29  1  0  0  0  0
  3 27  1  0  0  0  0
  3  4  1  0  0  0  0
  4  5  2  0  0  0  0
  4  9  1  0  0  0  0
  5  6  1  0  0  0  0
  5 30  1  0  0  0  0
  6  7  1  0  0  0  0
  7  8  2  0  0  0  0
  7 45  1  0  0  0  0
  9 10  2  0  0  0  0
  9 25  1  0  0  0  0
 10 11  1  0  0  0  0
 10 31  1  0  0  0  0
 11 15  1  0  0  0  0
 11 12  2  0  0  0  0
 12 13  1  0  0  0  0
 12 21  1  0  0  0  0
 13 20  1  0  0  0  0
 13 14  2  0  0  0  0
 14 15  1  0  0  0  0
 14 17  1  0  0  0  0
 15 16  1  0  0  0  0
 17 18  1  0  0  0  0
 17 32  1  0  0  0  0
 17 33  1  0  0  0  0
 18 19  1  0  0  0  0
 18 34  1  0  0  0  0
 18 35  1  0  0  0  0
 19 20  1  0  0  0  0
 19 36  1  0  0  0  0
 19 37  1  0  0  0  0
 20 38  1  0  0  0  0
 20 39  1  0  0  0  0
 21 22  1  0  0  0  0
 21 40  1  0  0  0  0
 21 41  1  0  0  0  0
 22 23  1  0  0  0  0
 22 42  1  0  0  0  0
 22 43  1  0  0  0  0
 23 24  2  0  0  0  0
 23 46  1  0  0  0  0
 25 26  2  0  0  0  0
 25 27  1  0  0  0  0
 27 44  1  0  0  0  0
M  CHG  2  45  -1  46  -1
M  END
$$$$
ZINC03815535
  -OEChem-08230709403D

 65 68  0     0  0  0  0  0  0999 V2000
   -2.2664    2.6406    5.7207 C   0  0  0  0  0  0  0  0  0  0  0  0
   -1.0652    1.8152    5.8687 N   0  0  0  0  0  0  0  0  0  0  0  0
   -0.4094    1.3640    4.7512 C   0  0  0  0  0  0  0  0  0  0  0  0
    0.7497    0.5679    4.8763 C   0  0  0  0  0  0  0  0  0  0  0  0
    1.2453    0.2291    6.1562 C   0  0  0  0  0  0  0  0  0  0  0  0
    0.5843    0.6839    7.2655 C   0  0  0  0  0  0  0  0  0  0  0  0
   -0.6156    1.5073    7.1005 C   0  0  0  0  0  0  0  0  0  0  0  0
   -1.2098    1.9161    8.0821 O   0  0  0  0  0  0  0  0  0  0  0  0
    1.0781    0.3458    8.6209 C   0  0  0  0  0  0  0  0  0  0  0  0
    0.6245   -0.8061    9.2648 C   0  0  0  0  0  0  0  0  0  0  0  0
    1.0925   -1.1181   10.5262 C   0  0  0  0  0  0  0  0  0  0  0  0
    2.0012   -0.2863   11.1554 C   0  0  0  0  0  0  0  0  0  0  0  0
    2.4509    0.8598   10.5247 C   0  0  0  0  0  0  0  0  0  0  0  0
    1.9945    1.1808    9.2613 C   0  0  0  0  0  0  0  0  0  0  0  0
    2.5591    2.6202    8.4720 Cl  0  0  0  0  0  0  0  0  0  0  0  0
   -0.5209   -1.8478    8.4796 Cl  0  0  0  0  0  0  0  0  0  0  0  0
    1.3899    0.1267    3.7087 C   0  0  0  0  0  0  0  0  0  0  0  0
    0.8797    0.4693    2.5405 N   0  0  0  0  0  0  0  0  0  0  0  0
   -0.2103    1.2245    2.4609 C   0  0  0  0  0  0  0  0  0  0  0  0
   -0.8488    1.6644    3.5342 N   0  0  0  0  0  0  0  0  0  0  0  0
   -0.6984    1.5583    1.2133 N   0  0  0  0  0  0  0  0  0  0  0  0
   -0.0127    1.0858    0.0080 C   0  0  0  0  0  0  0  0  0  0  0  0
   -0.7527    1.5927   -1.2315 C   0  0  0  0  0  0  0  0  0  0  0  0
   -0.0366    1.0992   -2.4903 C   0  0  0  0  0  0  0  0  0  0  0  0
   -0.7766    1.6061   -3.7298 C   0  0  0  0  0  0  0  0  0  0  0  0
   -0.0604    1.1126   -4.9886 C   0  0  0  0  0  0  0  0  0  0  0  0
   -2.1059    0.9933   -6.2796 C   0  0  0  0  0  0  0  0  0  0  0  0
   -2.8417    1.5842   -7.4845 C   0  0  0  0  0  0  0  0  0  0  0  0
   -0.7248    1.9407   -8.6026 C   0  0  0  0  0  0  0  0  0  0  0  0
    0.0111    1.3497   -7.3977 C   0  0  0  0  0  0  0  0  0  0  0  0
   -2.7703    1.8213   -9.8936 C   0  0  0  0  0  0  0  0  0  0  0  0
   -3.1464    1.9984    5.6843 H   0  0  0  0  0  0  0  0  0  0  0  0
   -2.3472    3.3201    6.5692 H   0  0  0  0  0  0  0  0  0  0  0  0
   -2.1993    3.2176    4.7983 H   0  0  0  0  0  0  0  0  0  0  0  0
    2.1320   -0.3790    6.2574 H   0  0  0  0  0  0  0  0  0  0  0  0
    0.7451   -2.0112   11.0242 H   0  0  0  0  0  0  0  0  0  0  0  0
    2.3610   -0.5326   12.1435 H   0  0  0  0  0  0  0  0  0  0  0  0
    3.1601    1.5053   11.0215 H   0  0  0  0  0  0  0  0  0  0  0  0
    2.2790   -0.4839    3.7644 H   0  0  0  0  0  0  0  0  0  0  0  0
   -1.4954    2.1056    1.1349 H   0  0  0  0  0  0  0  0  0  0  0  0
    0.0021   -0.0041    0.0020 H   0  0  0  0  0  0  0  0  0  0  0  0
    1.0099    1.4631    0.0003 H   0  0  0  0  0  0  0  0  0  0  0  0
   -1.7753    1.2154   -1.2238 H   0  0  0  0  0  0  0  0  0  0  0  0
   -0.7675    2.6825   -1.2255 H   0  0  0  0  0  0  0  0  0  0  0  0
    0.9860    1.4765   -2.4981 H   0  0  0  0  0  0  0  0  0  0  0  0
   -0.0218    0.0093   -2.4963 H   0  0  0  0  0  0  0  0  0  0  0  0
   -1.7991    1.2288   -3.7221 H   0  0  0  0  0  0  0  0  0  0  0  0
   -0.7913    2.6960   -3.7239 H   0  0  0  0  0  0  0  0  0  0  0  0
    0.9622    1.4899   -4.9964 H   0  0  0  0  0  0  0  0  0  0  0  0
   -0.0456    0.0228   -4.9946 H   0  0  0  0  0  0  0  0  0  0  0  0
   -2.0072   -0.0848   -6.4067 H   0  0  0  0  0  0  0  0  0  0  0  0
   -2.6699    1.2025   -5.3706 H   0  0  0  0  0  0  0  0  0  0  0  0
   -2.9645    2.6582   -7.3447 H   0  0  0  0  0  0  0  0  0  0  0  0
   -3.8212    1.1151   -7.5784 H   0  0  0  0  0  0  0  0  0  0  0  0
   -0.8235    3.0187   -8.4755 H   0  0  0  0  0  0  0  0  0  0  0  0
   -0.1606    1.7318   -9.5115 H   0  0  0  0  0  0  0  0  0  0  0  0
    0.9905    1.8188   -7.3039 H   0  0  0  0  0  0  0  0  0  0  0  0
    0.1338    0.2757   -7.5375 H   0  0  0  0  0  0  0  0  0  0  0  0
   -2.2012    1.5640  -10.7869 H   0  0  0  0  0  0  0  0  0  0  0  0
   -3.7552    1.3570   -9.9439 H   0  0  0  0  0  0  0  0  0  0  0  0
   -2.8816    2.9039   -9.8329 H   0  0  0  0  0  0  0  0  0  0  0  0
   -0.7746    1.6269   -6.1767 N   0  3  0  0  0  0  0  0  0  0  0  0
   -0.8946    2.6421   -6.0803 H   0  0  0  0  0  0  0  0  0  0  0  0
   -2.0563    1.3070   -8.7054 N   0  3  0  0  0  0  0  0  0  0  0  0
   -1.9363    0.2918   -8.8018 H   0  0  0  0  0  0  0  0  0  0  0  0
  1  2  1  0  0  0  0
  1 32  1  0  0  0  0
  1 33  1  0  0  0  0
  1 34  1  0  0  0  0
  2  7  1  0  0  0  0
  2  3  1  0  0  0  0
  3 20  2  0  0  0  0
  3  4  1  0  0  0  0
  4  5  1  0  0  0  0
  4 17  2  0  0  0  0
  5  6  2  0  0  0  0
  5 35  1  0  0  0  0
  6  7  1  0  0  0  0
  6  9  1  0  0  0  0
  7  8  2  0  0  0  0
  9 14  2  0  0  0  0
  9 10  1  0  0  0  0
 10 11  2  0  0  0  0
 10 16  1  0  0  0  0
 11 12  1  0  0  0  0
 11 36  1  0  0  0  0
 12 13  2  0  0  0  0
 12 37  1  0  0  0  0
 13 14  1  0  0  0  0
 13 38  1  0  0  0  0
 14 15  1  0  0  0  0
 17 18  1  0  0  0  0
 17 39  1  0  0  0  0
 18 19  2  0  0  0  0
 19 20  1  0  0  0  0
 19 21  1  0  0  0  0
 21 22  1  0  0  0  0
 21 40  1  0  0  0  0
 22 23  1  0  0  0  0
 22 41  1  0  0  0  0
 22 42  1  0  0  0  0
 23 24  1  0  0  0  0
 23 43  1  0  0  0  0
 23 44  1  0  0  0  0
 24 25  1  0  0  0  0
 24 45  1  0  0  0  0
 24 46  1  0  0  0  0
 25 26  1  0  0  0  0
 25 47  1  0  0  0  0
 25 48  1  0  0  0  0
 26 49  1  0  0  0  0
 26 50  1  0  0  0  0
 26 62  1  0  0  0  0
 27 28  1  0  0  0  0
 27 51  1  0  0  0  0
 27 52  1  0  0  0  0
 27 62  1  0  0  0  0
 28 53  1  0  0  0  0
 28 54  1  0  0  0  0
 28 64  1  0  0  0  0
 29 30  1  0  0  0  0
 29 55  1  0  0  0  0
 29 56  1  0  0  0  0
 29 64  1  0  0  0  0
 30 57  1  0  0  0  0
 30 58  1  0  0  0  0
 30 62  1  0  0  0  0
 31 59  1  0  0  0  0
 31 60  1  0  0  0  0
 31 61  1  0  0  0  0
 31 64  1  0  0  0  0
 62 63  1  0  0  0  0
 64 65  1  0  0  0  0
M  CHG  2  62   1  64   1
M  END
$$$$
ZINC03815536
  -OEChem-08230709403D

 67 70  0     0  0  0  0  0  0999 V2000
    3.4622  -10.1764    0.4623 C   0  0  0  0  0  0  0  0  0  0  0  0
    3.0710   -8.7032    0.5943 C   0  0  0  0  0  0  0  0  0  0  0  0
    1.2360   -8.9043   -0.9724 C   0  0  0  0  0  0  0  0  0  0  0  0
    0.9393   -8.8001   -2.4698 C   0  0  0  0  0  0  0  0  0  0  0  0
    2.3399   -6.7709   -0.6684 C   0  0  0  0  0  0  0  0  0  0  0  0
    3.6996   -6.1003   -0.8747 C   0  0  0  0  0  0  0  0  0  0  0  0
    3.5304   -4.5803   -0.8314 C   0  0  0  0  0  0  0  0  0  0  0  0
    4.8003   -3.9540   -1.0242 O   0  0  0  0  0  0  0  0  0  0  0  0
    4.8261   -2.5944   -1.0133 C   0  0  0  0  0  0  0  0  0  0  0  0
    6.0260   -1.9224   -1.1945 C   0  0  0  0  0  0  0  0  0  0  0  0
    6.0532   -0.5418   -1.1832 C   0  0  0  0  0  0  0  0  0  0  0  0
    4.8787    0.1739   -0.9907 C   0  0  0  0  0  0  0  0  0  0  0  0
    3.6786   -0.4998   -0.8041 C   0  0  0  0  0  0  0  0  0  0  0  0
    3.6525   -1.8803   -0.8205 C   0  0  0  0  0  0  0  0  0  0  0  0
    4.9053    1.5734   -0.9791 N   0  0  0  0  0  0  0  0  0  0  0  0
    5.7426    2.2586   -1.8479 C   0  0  0  0  0  0  0  0  0  0  0  0
    5.8502    3.6387   -1.7428 C   0  0  0  0  0  0  0  0  0  0  0  0
    6.6915    4.3148   -2.6179 C   0  0  0  0  0  0  0  0  0  0  0  0
    7.4024    3.5631   -3.5795 C   0  0  0  0  0  0  0  0  0  0  0  0
    8.2688    4.2171   -4.4871 C   0  0  0  0  0  0  0  0  0  0  0  0
    8.4036    5.5770   -4.4166 C   0  0  0  0  0  0  0  0  0  0  0  0
    7.6463    6.3273   -3.4121 C   0  0  0  0  0  0  0  0  0  0  0  0
    7.7575    7.5387   -3.3484 O   0  0  0  0  0  0  0  0  0  0  0  0
    6.8319    5.6821   -2.5541 N   0  0  0  0  0  0  0  0  0  0  0  0
    6.0855    6.4432   -1.5491 C   0  0  0  0  0  0  0  0  0  0  0  0
    9.3037    6.2867   -5.3552 C   0  0  0  0  0  0  0  0  0  0  0  0
   10.6418    6.4965   -5.0194 C   0  0  0  0  0  0  0  0  0  0  0  0
   11.4772    7.1533   -5.9017 C   0  0  0  0  0  0  0  0  0  0  0  0
   10.9871    7.6133   -7.1107 C   0  0  0  0  0  0  0  0  0  0  0  0
    9.6602    7.4140   -7.4470 C   0  0  0  0  0  0  0  0  0  0  0  0
    8.8157    6.7533   -6.5764 C   0  0  0  0  0  0  0  0  0  0  0  0
    7.1508    6.5042   -7.0004 Cl  0  0  0  0  0  0  0  0  0  0  0  0
   11.2569    5.9267   -3.4993 Cl  0  0  0  0  0  0  0  0  0  0  0  0
    7.2342    2.1736   -3.6158 C   0  0  0  0  0  0  0  0  0  0  0  0
    6.4253    1.5812   -2.7647 N   0  0  0  0  0  0  0  0  0  0  0  0
    3.8804  -10.5273    1.4057 H   0  0  0  0  0  0  0  0  0  0  0  0
    2.5794  -10.7659    0.2146 H   0  0  0  0  0  0  0  0  0  0  0  0
    4.2054  -10.2856   -0.3276 H   0  0  0  0  0  0  0  0  0  0  0  0
    3.9538   -8.1137    0.8420 H   0  0  0  0  0  0  0  0  0  0  0  0
    2.3278   -8.5940    1.3842 H   0  0  0  0  0  0  0  0  0  0  0  0
    1.3068   -9.9542   -0.6883 H   0  0  0  0  0  0  0  0  0  0  0  0
    0.4332   -8.4287   -0.4090 H   0  0  0  0  0  0  0  0  0  0  0  0
    0.9411   -7.7518   -2.7684 H   0  0  0  0  0  0  0  0  0  0  0  0
    1.7034   -9.3389   -3.0300 H   0  0  0  0  0  0  0  0  0  0  0  0
   -0.0382   -9.2354   -2.6776 H   0  0  0  0  0  0  0  0  0  0  0  0
    1.9225   -6.4588    0.2889 H   0  0  0  0  0  0  0  0  0  0  0  0
    1.6646   -6.4778   -1.4722 H   0  0  0  0  0  0  0  0  0  0  0  0
    4.1060   -6.3932   -1.8428 H   0  0  0  0  0  0  0  0  0  0  0  0
    4.3824   -6.4125   -0.0845 H   0  0  0  0  0  0  0  0  0  0  0  0
    3.1240   -4.2874    0.1366 H   0  0  0  0  0  0  0  0  0  0  0  0
    2.8476   -4.2681   -1.6216 H   0  0  0  0  0  0  0  0  0  0  0  0
    6.9392   -2.4791   -1.3442 H   0  0  0  0  0  0  0  0  0  0  0  0
    6.9875   -0.0188   -1.3243 H   0  0  0  0  0  0  0  0  0  0  0  0
    2.7655    0.0560   -0.6499 H   0  0  0  0  0  0  0  0  0  0  0  0
    2.7188   -2.4043   -0.6791 H   0  0  0  0  0  0  0  0  0  0  0  0
    4.3385    2.0642   -0.3637 H   0  0  0  0  0  0  0  0  0  0  0  0
    5.2898    4.1777   -0.9932 H   0  0  0  0  0  0  0  0  0  0  0  0
    8.8166    3.6505   -5.2255 H   0  0  0  0  0  0  0  0  0  0  0  0
    6.6786    6.5211   -0.6379 H   0  0  0  0  0  0  0  0  0  0  0  0
    5.8750    7.4417   -1.9321 H   0  0  0  0  0  0  0  0  0  0  0  0
    5.1477    5.9330   -1.3296 H   0  0  0  0  0  0  0  0  0  0  0  0
   12.5142    7.3121   -5.6451 H   0  0  0  0  0  0  0  0  0  0  0  0
   11.6433    8.1306   -7.7950 H   0  0  0  0  0  0  0  0  0  0  0  0
    9.2838    7.7757   -8.3925 H   0  0  0  0  0  0  0  0  0  0  0  0
    7.7707    1.5859   -4.3460 H   0  0  0  0  0  0  0  0  0  0  0  0
    2.5259   -8.2369   -0.6980 N   0  3  0  0  0  0  0  0  0  0  0  0
    3.1895   -8.4739   -1.4448 H   0  0  0  0  0  0  0  0  0  0  0  0
  1  2  1  0  0  0  0
  1 36  1  0  0  0  0
  1 37  1  0  0  0  0
  1 38  1  0  0  0  0
  2 39  1  0  0  0  0
  2 40  1  0  0  0  0
  2 66  1  0  0  0  0
  3  4  1  0  0  0  0
  3 41  1  0  0  0  0
  3 42  1  0  0  0  0
  3 66  1  0  0  0  0
  4 43  1  0  0  0  0
  4 44  1  0  0  0  0
  4 45  1  0  0  0  0
  5  6  1  0  0  0  0
  5 46  1  0  0  0  0
  5 47  1  0  0  0  0
  5 66  1  0  0  0  0
  6  7  1  0  0  0  0
  6 48  1  0  0  0  0
  6 49  1  0  0  0  0
  7  8  1  0  0  0  0
  7 50  1  0  0  0  0
  7 51  1  0  0  0  0
  8  9  1  0  0  0  0
  9 14  2  0  0  0  0
  9 10  1  0  0  0  0
 10 11  2  0  0  0  0
 10 52  1  0  0  0  0
 11 12  1  0  0  0  0
 11 53  1  0  0  0  0
 12 13  2  0  0  0  0
 12 15  1  0  0  0  0
 13 14  1  0  0  0  0
 13 54  1  0  0  0  0
 14 55  1  0  0  0  0
 15 16  1  0  0  0  0
 15 56  1  0  0  0  0
 16 35  2  0  0  0  0
 16 17  1  0  0  0  0
 17 18  2  0  0  0  0
 17 57  1  0  0  0  0
 18 24  1  0  0  0  0
 18 19  1  0  0  0  0
 19 20  1  0  0  0  0
 19 34  2  0  0  0  0
 20 21  2  0  0  0  0
 20 58  1  0  0  0  0
 21 22  1  0  0  0  0
 21 26  1  0  0  0  0
 22 23  2  0  0  0  0
 22 24  1  0  0  0  0
 24 25  1  0  0  0  0
 25 59  1  0  0  0  0
 25 60  1  0  0  0  0
 25 61  1  0  0  0  0
 26 31  2  0  0  0  0
 26 27  1  0  0  0  0
 27 28  2  0  0  0  0
 27 33  1  0  0  0  0
 28 29  1  0  0  0  0
 28 62  1  0  0  0  0
 29 30  2  0  0  0  0
 29 63  1  0  0  0  0
 30 31  1  0  0  0  0
 30 64  1  0  0  0  0
 31 32  1  0  0  0  0
 34 35  1  0  0  0  0
 34 65  1  0  0  0  0
 66 67  1  0  0  0  0
M  CHG  1  66   1
M  END
$$$$
ZINC03815537
  -OEChem-08230709403D

 44 47  0     0  0  0  0  0  0999 V2000
   -3.9598    6.4151    1.6200 C   0  0  0  0  0  0  0  0  0  0  0  0
   -2.6378    6.4420    2.0160 C   0  0  0  0  0  0  0  0  0  0  0  0
   -1.7837    5.4018    1.6679 C   0  0  0  0  0  0  0  0  0  0  0  0
   -2.2831    4.3350    0.9077 C   0  0  0  0  0  0  0  0  0  0  0  0
   -3.6185    4.3131    0.5195 C   0  0  0  0  0  0  0  0  0  0  0  0
   -4.4519    5.3559    0.8746 C   0  0  0  0  0  0  0  0  0  0  0  0
   -6.2662    5.3382    0.3421 Br  0  0  0  0  0  0  0  0  0  0  0  0
   -1.1529    3.4011    0.7073 C   0  0  0  0  0  0  0  0  0  0  0  0
   -1.1650    2.2025    0.0198 C   0  0  0  0  0  0  0  0  0  0  0  0
    0.0417    1.5105   -0.2121 C   0  0  0  0  0  0  0  0  0  0  0  0
    0.2006    0.1326   -0.2662 C   0  0  0  0  0  0  0  0  0  0  0  0
    1.5456   -0.1107   -0.5208 C   0  0  0  0  0  0  0  0  0  0  0  0
    2.1823    1.0891   -0.6171 C   0  0  0  0  0  0  0  0  0  0  0  0
    1.2794    2.0793   -0.4325 N   0  0  0  0  0  0  0  0  0  0  0  0
    1.4700    3.0302   -0.4526 H   0  0  0  0  0  0  0  0  0  0  0  0
    3.6612    1.2368   -0.8866 C   0  0  0  0  0  0  0  0  0  0  0  0
    4.3406   -0.1094   -0.6096 C   0  0  0  0  0  0  0  0  0  0  0  0
    3.5884   -1.2230   -1.3432 C   0  0  0  0  0  0  0  0  0  0  0  0
    2.2275   -1.4477   -0.6731 C   0  0  0  0  0  0  0  0  0  0  0  0
   -0.8792   -0.9027   -0.0838 C   0  0  0  0  0  0  0  0  0  0  0  0
   -1.5080   -1.2282   -1.4402 C   0  0  0  0  0  0  0  0  0  0  0  0
   -2.5878   -2.2634   -1.2578 C   0  0  0  0  0  0  0  0  0  0  0  0
   -2.8297   -2.6965   -0.1560 O   0  0  0  0  0  0  0  0  0  0  0  0
   -0.0142    4.0267    1.3918 C   0  0  0  0  0  0  0  0  0  0  0  0
    1.1158    3.5763    1.4592 O   0  0  0  0  0  0  0  0  0  0  0  0
   -0.4366    5.1831    1.9304 N   0  0  0  0  0  0  0  0  0  0  0  0
   -4.6170    7.2271    1.8942 H   0  0  0  0  0  0  0  0  0  0  0  0
   -2.2661    7.2730    2.5972 H   0  0  0  0  0  0  0  0  0  0  0  0
   -4.0009    3.4869   -0.0615 H   0  0  0  0  0  0  0  0  0  0  0  0
   -2.0985    1.7958   -0.3400 H   0  0  0  0  0  0  0  0  0  0  0  0
    4.0792    2.0006   -0.2309 H   0  0  0  0  0  0  0  0  0  0  0  0
    3.8181    1.5198   -1.9274 H   0  0  0  0  0  0  0  0  0  0  0  0
    4.3291   -0.3084    0.4620 H   0  0  0  0  0  0  0  0  0  0  0  0
    5.3717   -0.0750   -0.9613 H   0  0  0  0  0  0  0  0  0  0  0  0
    4.1706   -2.1436   -1.3011 H   0  0  0  0  0  0  0  0  0  0  0  0
    3.4380   -0.9355   -2.3838 H   0  0  0  0  0  0  0  0  0  0  0  0
    2.3716   -1.9002    0.3080 H   0  0  0  0  0  0  0  0  0  0  0  0
    1.6163   -2.1029   -1.2938 H   0  0  0  0  0  0  0  0  0  0  0  0
   -0.4466   -1.8077    0.3426 H   0  0  0  0  0  0  0  0  0  0  0  0
   -1.6449   -0.5146    0.5879 H   0  0  0  0  0  0  0  0  0  0  0  0
   -1.9406   -0.3232   -1.8666 H   0  0  0  0  0  0  0  0  0  0  0  0
   -0.7423   -1.6163   -2.1119 H   0  0  0  0  0  0  0  0  0  0  0  0
    0.1271    5.7883    2.4373 H   0  0  0  0  0  0  0  0  0  0  0  0
   -3.2809   -2.7044   -2.3193 O   0  5  0  0  0  0  0  0  0  0  0  0
  1  6  2  0  0  0  0
  1  2  1  0  0  0  0
  1 27  1  0  0  0  0
  2  3  2  0  0  0  0
  2 28  1  0  0  0  0
  3 26  1  0  0  0  0
  3  4  1  0  0  0  0
  4  5  2  0  0  0  0
  4  8  1  0  0  0  0
  5  6  1  0  0  0  0
  5 29  1  0  0  0  0
  6  7  1  0  0  0  0
  8  9  2  0  0  0  0
  8 24  1  0  0  0  0
  9 10  1  0  0  0  0
  9 30  1  0  0  0  0
 10 14  1  0  0  0  0
 10 11  2  0  0  0  0
 11 12  1  0  0  0  0
 11 20  1  0  0  0  0
 12 19  1  0  0  0  0
 12 13  2  0  0  0  0
 13 14  1  0  0  0  0
 13 16  1  0  0  0  0
 14 15  1  0  0  0  0
 16 17  1  0  0  0  0
 16 31  1  0  0  0  0
 16 32  1  0  0  0  0
 17 18  1  0  0  0  0
 17 33  1  0  0  0  0
 17 34  1  0  0  0  0
 18 19  1  0  0  0  0
 18 35  1  0  0  0  0
 18 36  1  0  0  0  0
 19 37  1  0  0  0  0
 19 38  1  0  0  0  0
 20 21  1  0  0  0  0
 20 39  1  0  0  0  0
 20 40  1  0  0  0  0
 21 22  1  0  0  0  0
 21 41  1  0  0  0  0
 21 42  1  0  0  0  0
 22 23  2  0  0  0  0
 22 44  1  0  0  0  0
 24 25  2  0  0  0  0
 24 26  1  0  0  0  0
 26 43  1  0  0  0  0
M  CHG  1  44  -1
M  END
$$$$
ZINC03815538
  -OEChem-08230709403D

 44 47  0     0  0  0  0  0  0999 V2000
   -4.2553   -0.6263    0.7643 C   0  0  0  0  0  0  0  0  0  0  0  0
   -5.0695    0.2979    1.3980 C   0  0  0  0  0  0  0  0  0  0  0  0
   -4.5900    1.5498    1.7254 C   0  0  0  0  0  0  0  0  0  0  0  0
   -3.2780    1.8961    1.4209 C   0  0  0  0  0  0  0  0  0  0  0  0
   -2.4572    0.9581    0.7802 C   0  0  0  0  0  0  0  0  0  0  0  0
   -2.9503   -0.3015    0.4546 C   0  0  0  0  0  0  0  0  0  0  0  0
   -1.1426    1.6118    0.5953 C   0  0  0  0  0  0  0  0  0  0  0  0
   -0.0126    1.0758    0.0080 C   0  0  0  0  0  0  0  0  0  0  0  0
    1.1121    1.8921   -0.2319 C   0  0  0  0  0  0  0  0  0  0  0  0
    2.4407    1.4918   -0.1921 C   0  0  0  0  0  0  0  0  0  0  0  0
    3.2103    2.6109   -0.4892 C   0  0  0  0  0  0  0  0  0  0  0  0
    2.3684    3.6597   -0.7021 C   0  0  0  0  0  0  0  0  0  0  0  0
    1.0930    3.2335   -0.5551 N   0  0  0  0  0  0  0  0  0  0  0  0
    0.2982    3.7799   -0.6573 H   0  0  0  0  0  0  0  0  0  0  0  0
    2.8336    5.0542   -1.0489 C   0  0  0  0  0  0  0  0  0  0  0  0
    4.3236    5.1670   -0.7055 C   0  0  0  0  0  0  0  0  0  0  0  0
    5.0814    3.9873   -1.3204 C   0  0  0  0  0  0  0  0  0  0  0  0
    4.7139    2.6990   -0.5741 C   0  0  0  0  0  0  0  0  0  0  0  0
    2.9516    0.1076    0.1146 C   0  0  0  0  0  0  0  0  0  0  0  0
    3.0669   -0.6929   -1.1841 C   0  0  0  0  0  0  0  0  0  0  0  0
    3.5779   -2.0771   -0.8773 C   0  0  0  0  0  0  0  0  0  0  0  0
    3.8244   -2.3911    0.2631 O   0  0  0  0  0  0  0  0  0  0  0  0
   -1.2971    2.9514    1.1769 C   0  0  0  0  0  0  0  0  0  0  0  0
   -0.4362    3.8116    1.2317 O   0  0  0  0  0  0  0  0  0  0  0  0
   -2.5556    3.0635    1.6346 N   0  0  0  0  0  0  0  0  0  0  0  0
   -4.6421   -1.6028    0.5128 H   0  0  0  0  0  0  0  0  0  0  0  0
   -6.0896    0.0364    1.6377 H   0  0  0  0  0  0  0  0  0  0  0  0
   -5.2347    2.2617    2.2194 H   0  0  0  0  0  0  0  0  0  0  0  0
   -2.3147   -1.0217   -0.0390 H   0  0  0  0  0  0  0  0  0  0  0  0
    0.0077    0.0328   -0.2715 H   0  0  0  0  0  0  0  0  0  0  0  0
    2.2674    5.7844   -0.4707 H   0  0  0  0  0  0  0  0  0  0  0  0
    2.6877    5.2356   -2.1138 H   0  0  0  0  0  0  0  0  0  0  0  0
    4.4486    5.1542    0.3773 H   0  0  0  0  0  0  0  0  0  0  0  0
    4.7188    6.1007   -1.1055 H   0  0  0  0  0  0  0  0  0  0  0  0
    6.1542    4.1618   -1.2377 H   0  0  0  0  0  0  0  0  0  0  0  0
    4.8093    3.8888   -2.3713 H   0  0  0  0  0  0  0  0  0  0  0  0
    5.1376    2.7228    0.4299 H   0  0  0  0  0  0  0  0  0  0  0  0
    5.1021    1.8370   -1.1167 H   0  0  0  0  0  0  0  0  0  0  0  0
    3.9318    0.1783    0.5862 H   0  0  0  0  0  0  0  0  0  0  0  0
    2.2587   -0.3940    0.7903 H   0  0  0  0  0  0  0  0  0  0  0  0
    2.0868   -0.7636   -1.6556 H   0  0  0  0  0  0  0  0  0  0  0  0
    3.7598   -0.1913   -1.8597 H   0  0  0  0  0  0  0  0  0  0  0  0
   -2.9127    3.8566    2.0641 H   0  0  0  0  0  0  0  0  0  0  0  0
    3.7590   -2.9611   -1.8710 O   0  5  0  0  0  0  0  0  0  0  0  0
  1  6  2  0  0  0  0
  1  2  1  0  0  0  0
  1 26  1  0  0  0  0
  2  3  2  0  0  0  0
  2 27  1  0  0  0  0
  3  4  1  0  0  0  0
  3 28  1  0  0  0  0
  4 25  1  0  0  0  0
  4  5  2  0  0  0  0
  5  6  1  0  0  0  0
  5  7  1  0  0  0  0
  6 29  1  0  0  0  0
  7  8  2  0  0  0  0
  7 23  1  0  0  0  0
  8  9  1  0  0  0  0
  8 30  1  0  0  0  0
  9 13  1  0  0  0  0
  9 10  2  0  0  0  0
 10 11  1  0  0  0  0
 10 19  1  0  0  0  0
 11 18  1  0  0  0  0
 11 12  2  0  0  0  0
 12 13  1  0  0  0  0
 12 15  1  0  0  0  0
 13 14  1  0  0  0  0
 15 16  1  0  0  0  0
 15 31  1  0  0  0  0
 15 32  1  0  0  0  0
 16 17  1  0  0  0  0
 16 33  1  0  0  0  0
 16 34  1  0  0  0  0
 17 18  1  0  0  0  0
 17 35  1  0  0  0  0
 17 36  1  0  0  0  0
 18 37  1  0  0  0  0
 18 38  1  0  0  0  0
 19 20  1  0  0  0  0
 19 39  1  0  0  0  0
 19 40  1  0  0  0  0
 20 21  1  0  0  0  0
 20 41  1  0  0  0  0
 20 42  1  0  0  0  0
 21 22  2  0  0  0  0
 21 44  1  0  0  0  0
 23 24  2  0  0  0  0
 23 25  1  0  0  0  0
 25 43  1  0  0  0  0
M  CHG  1  44  -1
M  END
$$$$
ZINC03815545
  -OEChem-08230709403D

 60 63  0     0  0  0  0  0  0999 V2000
    2.5650   -3.0211   -1.9633 C   0  0  0  0  0  0  0  0  0  0  0  0
    1.1279   -3.4878   -2.2038 C   0  0  0  0  0  0  0  0  0  0  0  0
   -1.0941   -2.6109   -2.5995 C   0  0  0  0  0  0  0  0  0  0  0  0
   -0.9453   -2.4469   -4.1134 C   0  0  0  0  0  0  0  0  0  0  0  0
    0.0372   -2.1444   -0.5102 C   0  0  0  0  0  0  0  0  0  0  0  0
    1.1371   -1.3742   -0.0213 O   0  0  0  0  0  0  0  0  0  0  0  0
    1.0934   -0.0318   -0.2333 C   0  0  0  0  0  0  0  0  0  0  0  0
    2.1287    0.7750    0.2154 C   0  0  0  0  0  0  0  0  0  0  0  0
    2.0851    2.1384    0.0005 C   0  0  0  0  0  0  0  0  0  0  0  0
    1.0043    2.7018   -0.6650 C   0  0  0  0  0  0  0  0  0  0  0  0
   -0.0318    1.8934   -1.1139 C   0  0  0  0  0  0  0  0  0  0  0  0
    0.0132    0.5303   -0.8978 C   0  0  0  0  0  0  0  0  0  0  0  0
    0.9590    4.0842   -0.8829 N   0  0  0  0  0  0  0  0  0  0  0  0
    2.1271    4.7868   -1.1057 C   0  0  0  0  0  0  0  0  0  0  0  0
    3.2682    4.1142   -1.2122 N   0  0  0  0  0  0  0  0  0  0  0  0
    4.4114    4.7379   -1.4250 C   0  0  0  0  0  0  0  0  0  0  0  0
    4.4024    6.1367   -1.5382 C   0  0  0  0  0  0  0  0  0  0  0  0
    5.5948    6.8604   -1.7667 C   0  0  0  0  0  0  0  0  0  0  0  0
    5.5340    8.2244   -1.8701 C   0  0  0  0  0  0  0  0  0  0  0  0
    4.2401    8.8980   -1.7420 C   0  0  0  0  0  0  0  0  0  0  0  0
    4.1769   10.1111   -1.8326 O   0  0  0  0  0  0  0  0  0  0  0  0
    3.1196    8.1830   -1.5240 N   0  0  0  0  0  0  0  0  0  0  0  0
    3.1709    6.8160   -1.4194 C   0  0  0  0  0  0  0  0  0  0  0  0
    2.0680    6.1054   -1.2107 N   0  0  0  0  0  0  0  0  0  0  0  0
    1.8330    8.8721   -1.3977 C   0  0  0  0  0  0  0  0  0  0  0  0
    6.7661    9.0116   -2.1099 C   0  0  0  0  0  0  0  0  0  0  0  0
    7.2245    9.9062   -1.1433 C   0  0  0  0  0  0  0  0  0  0  0  0
    8.3758   10.6322   -1.3700 C   0  0  0  0  0  0  0  0  0  0  0  0
    9.0684   10.4829   -2.5582 C   0  0  0  0  0  0  0  0  0  0  0  0
    8.6157    9.6009   -3.5231 C   0  0  0  0  0  0  0  0  0  0  0  0
    7.4689    8.8650   -3.3055 C   0  0  0  0  0  0  0  0  0  0  0  0
    3.2571   -3.8111   -2.2549 H   0  0  0  0  0  0  0  0  0  0  0  0
    2.7614   -2.1285   -2.5572 H   0  0  0  0  0  0  0  0  0  0  0  0
    2.7003   -2.7914   -0.9064 H   0  0  0  0  0  0  0  0  0  0  0  0
    0.8961   -4.3126   -1.5301 H   0  0  0  0  0  0  0  0  0  0  0  0
    1.0221   -3.8212   -3.2362 H   0  0  0  0  0  0  0  0  0  0  0  0
   -1.4335   -3.6222   -2.3752 H   0  0  0  0  0  0  0  0  0  0  0  0
   -1.8231   -1.8918   -2.2260 H   0  0  0  0  0  0  0  0  0  0  0  0
   -1.9018   -2.6469   -4.5963 H   0  0  0  0  0  0  0  0  0  0  0  0
   -0.6303   -1.4281   -4.3392 H   0  0  0  0  0  0  0  0  0  0  0  0
   -0.1978   -3.1487   -4.4832 H   0  0  0  0  0  0  0  0  0  0  0  0
    0.0047   -3.1021    0.0094 H   0  0  0  0  0  0  0  0  0  0  0  0
   -0.8924   -1.6034   -0.3332 H   0  0  0  0  0  0  0  0  0  0  0  0
    2.9690    0.3368    0.7333 H   0  0  0  0  0  0  0  0  0  0  0  0
    2.8891    2.7669    0.3539 H   0  0  0  0  0  0  0  0  0  0  0  0
   -0.8729    2.3308   -1.6312 H   0  0  0  0  0  0  0  0  0  0  0  0
   -0.7927   -0.0985   -1.2465 H   0  0  0  0  0  0  0  0  0  0  0  0
    0.1073    4.5484   -0.8774 H   0  0  0  0  0  0  0  0  0  0  0  0
    5.3343    4.1836   -1.5107 H   0  0  0  0  0  0  0  0  0  0  0  0
    6.5397    6.3453   -1.8579 H   0  0  0  0  0  0  0  0  0  0  0  0
    1.9836    9.9461   -1.5073 H   0  0  0  0  0  0  0  0  0  0  0  0
    1.1541    8.5193   -2.1741 H   0  0  0  0  0  0  0  0  0  0  0  0
    1.4038    8.6636   -0.4177 H   0  0  0  0  0  0  0  0  0  0  0  0
    6.6820   10.0271   -0.2173 H   0  0  0  0  0  0  0  0  0  0  0  0
    8.7343   11.3221   -0.6203 H   0  0  0  0  0  0  0  0  0  0  0  0
    9.9664   11.0569   -2.7331 H   0  0  0  0  0  0  0  0  0  0  0  0
    9.1608    9.4882   -4.4486 H   0  0  0  0  0  0  0  0  0  0  0  0
    7.1164    8.1768   -4.0594 H   0  0  0  0  0  0  0  0  0  0  0  0
    0.2143   -2.3510   -1.9630 N   0  3  0  0  0  0  0  0  0  0  0  0
    0.6222   -1.5027   -2.3732 H   0  0  0  0  0  0  0  0  0  0  0  0
  1  2  1  0  0  0  0
  1 32  1  0  0  0  0
  1 33  1  0  0  0  0
  1 34  1  0  0  0  0
  2 35  1  0  0  0  0
  2 36  1  0  0  0  0
  2 59  1  0  0  0  0
  3  4  1  0  0  0  0
  3 37  1  0  0  0  0
  3 38  1  0  0  0  0
  3 59  1  0  0  0  0
  4 39  1  0  0  0  0
  4 40  1  0  0  0  0
  4 41  1  0  0  0  0
  5  6  1  0  0  0  0
  5 42  1  0  0  0  0
  5 43  1  0  0  0  0
  5 59  1  0  0  0  0
  6  7  1  0  0  0  0
  7 12  2  0  0  0  0
  7  8  1  0  0  0  0
  8  9  2  0  0  0  0
  8 44  1  0  0  0  0
  9 10  1  0  0  0  0
  9 45  1  0  0  0  0
 10 11  2  0  0  0  0
 10 13  1  0  0  0  0
 11 12  1  0  0  0  0
 11 46  1  0  0  0  0
 12 47  1  0  0  0  0
 13 14  1  0  0  0  0
 13 48  1  0  0  0  0
 14 24  2  0  0  0  0
 14 15  1  0  0  0  0
 15 16  2  0  0  0  0
 16 17  1  0  0  0  0
 16 49  1  0  0  0  0
 17 23  2  0  0  0  0
 17 18  1  0  0  0  0
 18 19  2  0  0  0  0
 18 50  1  0  0  0  0
 19 20  1  0  0  0  0
 19 26  1  0  0  0  0
 20 21  2  0  0  0  0
 20 22  1  0  0  0  0
 22 23  1  0  0  0  0
 22 25  1  0  0  0  0
 23 24  1  0  0  0  0
 25 51  1  0  0  0  0
 25 52  1  0  0  0  0
 25 53  1  0  0  0  0
 26 31  2  0  0  0  0
 26 27  1  0  0  0  0
 27 28  2  0  0  0  0
 27 54  1  0  0  0  0
 28 29  1  0  0  0  0
 28 55  1  0  0  0  0
 29 30  2  0  0  0  0
 29 56  1  0  0  0  0
 30 31  1  0  0  0  0
 30 57  1  0  0  0  0
 31 58  1  0  0  0  0
 59 60  1  0  0  0  0
M  CHG  1  59   1
M  END
$$$$
ZINC03815546
  -OEChem-08230709403D

 51 54  0     0  0  0  0  0  0999 V2000
    1.8388   13.1770    1.0881 C   0  0  0  0  0  0  0  0  0  0  0  0
    0.4961   13.0829    0.4103 C   0  0  0  0  0  0  0  0  0  0  0  0
   -0.3609   14.1447    0.1155 C   0  0  0  0  0  0  0  0  0  0  0  0
   -1.4622   13.6371   -0.4924 C   0  0  0  0  0  0  0  0  0  0  0  0
   -1.3273   12.2910   -0.5971 N   0  0  0  0  0  0  0  0  0  0  0  0
   -1.9726   11.6869   -0.9964 H   0  0  0  0  0  0  0  0  0  0  0  0
   -0.1218   11.9252   -0.0376 C   0  0  0  0  0  0  0  0  0  0  0  0
    0.3914   10.6153    0.0564 C   0  0  0  0  0  0  0  0  0  0  0  0
   -0.4673    9.5485    0.2445 C   0  0  0  0  0  0  0  0  0  0  0  0
   -0.1322    8.1081    0.2142 C   0  0  0  0  0  0  0  0  0  0  0  0
    1.0555    7.4113    0.0049 C   0  0  0  0  0  0  0  0  0  0  0  0
    1.0581    6.0346    0.0368 C   0  0  0  0  0  0  0  0  0  0  0  0
   -0.1288    5.3401    0.2787 C   0  0  0  0  0  0  0  0  0  0  0  0
   -1.3192    6.0312    0.4829 C   0  0  0  0  0  0  0  0  0  0  0  0
   -1.3295    7.4190    0.4580 C   0  0  0  0  0  0  0  0  0  0  0  0
   -2.3572    8.3385    0.6322 N   0  0  0  0  0  0  0  0  0  0  0  0
   -1.9095    9.6003    0.5177 C   0  0  0  0  0  0  0  0  0  0  0  0
   -2.5821   10.6105    0.6226 O   0  0  0  0  0  0  0  0  0  0  0  0
   -0.1219    3.8574    0.3123 C   0  0  0  0  0  0  0  0  0  0  0  0
   -1.3039    3.1579    0.5529 C   0  0  0  0  0  0  0  0  0  0  0  0
   -1.2958    1.7780    0.5779 C   0  0  0  0  0  0  0  0  0  0  0  0
   -0.1160    1.0860    0.3758 C   0  0  0  0  0  0  0  0  0  0  0  0
    1.0649    1.7746    0.1352 C   0  0  0  0  0  0  0  0  0  0  0  0
    1.0652    3.1595    0.1030 C   0  0  0  0  0  0  0  0  0  0  0  0
    2.2211    1.0900   -0.0685 O   0  0  0  0  0  0  0  0  0  0  0  0
    2.1476   -0.3363   -0.0209 C   0  0  0  0  0  0  0  0  0  0  0  0
   -0.1075   15.5988    0.4196 C   0  0  0  0  0  0  0  0  0  0  0  0
    0.7237   16.2178   -0.7059 C   0  0  0  0  0  0  0  0  0  0  0  0
    0.9772   17.6719   -0.4018 C   0  0  0  0  0  0  0  0  0  0  0  0
    0.5380   18.1627    0.6111 O   0  0  0  0  0  0  0  0  0  0  0  0
    2.6166   13.3118    0.3365 H   0  0  0  0  0  0  0  0  0  0  0  0
    1.8423   14.0266    1.7710 H   0  0  0  0  0  0  0  0  0  0  0  0
    2.0286   12.2607    1.6471 H   0  0  0  0  0  0  0  0  0  0  0  0
   -2.3074   14.2119   -0.8410 H   0  0  0  0  0  0  0  0  0  0  0  0
    1.4553   10.4455   -0.0185 H   0  0  0  0  0  0  0  0  0  0  0  0
    1.9728    7.9497   -0.1825 H   0  0  0  0  0  0  0  0  0  0  0  0
    1.9778    5.4922   -0.1256 H   0  0  0  0  0  0  0  0  0  0  0  0
   -2.2345    5.4877    0.6651 H   0  0  0  0  0  0  0  0  0  0  0  0
   -3.2797    8.0998    0.8135 H   0  0  0  0  0  0  0  0  0  0  0  0
   -2.2261    3.6957    0.7159 H   0  0  0  0  0  0  0  0  0  0  0  0
   -2.2127    1.2374    0.7604 H   0  0  0  0  0  0  0  0  0  0  0  0
   -0.1141    0.0063    0.4009 H   0  0  0  0  0  0  0  0  0  0  0  0
    1.9833    3.6966   -0.0841 H   0  0  0  0  0  0  0  0  0  0  0  0
    1.7909   -0.6492    0.9604 H   0  0  0  0  0  0  0  0  0  0  0  0
    1.4586   -0.6903   -0.7878 H   0  0  0  0  0  0  0  0  0  0  0  0
    3.1371   -0.7573   -0.1991 H   0  0  0  0  0  0  0  0  0  0  0  0
   -1.0590   16.1244    0.4998 H   0  0  0  0  0  0  0  0  0  0  0  0
    0.4351   15.6839    1.3611 H   0  0  0  0  0  0  0  0  0  0  0  0
    1.6753   15.6922   -0.7862 H   0  0  0  0  0  0  0  0  0  0  0  0
    0.1811   16.1327   -1.6474 H   0  0  0  0  0  0  0  0  0  0  0  0
    1.6908   18.4218   -1.2563 O   0  5  0  0  0  0  0  0  0  0  0  0
  1  2  1  0  0  0  0
  1 31  1  0  0  0  0
  1 32  1  0  0  0  0
  1 33  1  0  0  0  0
  2  7  2  0  0  0  0
  2  3  1  0  0  0  0
  3  4  2  0  0  0  0
  3 27  1  0  0  0  0
  4  5  1  0  0  0  0
  4 34  1  0  0  0  0
  5  6  1  0  0  0  0
  5  7  1  0  0  0  0
  7  8  1  0  0  0  0
  8  9  2  0  0  0  0
  8 35  1  0  0  0  0
  9 17  1  0  0  0  0
  9 10  1  0  0  0  0
 10 15  2  0  0  0  0
 10 11  1  0  0  0  0
 11 12  2  0  0  0  0
 11 36  1  0  0  0  0
 12 13  1  0  0  0  0
 12 37  1  0  0  0  0
 13 14  2  0  0  0  0
 13 19  1  0  0  0  0
 14 15  1  0  0  0  0
 14 38  1  0  0  0  0
 15 16  1  0  0  0  0
 16 17  1  0  0  0  0
 16 39  1  0  0  0  0
 17 18  2  0  0  0  0
 19 24  2  0  0  0  0
 19 20  1  0  0  0  0
 20 21  2  0  0  0  0
 20 40  1  0  0  0  0
 21 22  1  0  0  0  0
 21 41  1  0  0  0  0
 22 23  2  0  0  0  0
 22 42  1  0  0  0  0
 23 24  1  0  0  0  0
 23 25  1  0  0  0  0
 24 43  1  0  0  0  0
 25 26  1  0  0  0  0
 26 44  1  0  0  0  0
 26 45  1  0  0  0  0
 26 46  1  0  0  0  0
 27 28  1  0  0  0  0
 27 47  1  0  0  0  0
 27 48  1  0  0  0  0
 28 29  1  0  0  0  0
 28 49  1  0  0  0  0
 28 50  1  0  0  0  0
 29 30  2  0  0  0  0
 29 51  1  0  0  0  0
M  CHG  1  51  -1
M  END
$$$$
ZINC03815551
  -OEChem-08230709403D

 64 67  0     0  0  0  0  0  0999 V2000
   10.5426    6.7002   -2.7490 C   0  0  0  0  0  0  0  0  0  0  0  0
   11.3397    5.9980   -1.6479 C   0  0  0  0  0  0  0  0  0  0  0  0
   10.6726    7.7016   -0.0618 C   0  0  0  0  0  0  0  0  0  0  0  0
   12.0877    8.2022    0.2344 C   0  0  0  0  0  0  0  0  0  0  0  0
    9.3671    5.6743   -0.2817 C   0  0  0  0  0  0  0  0  0  0  0  0
    9.4728    4.1488   -0.3335 C   0  0  0  0  0  0  0  0  0  0  0  0
    8.0716    3.5379   -0.2667 C   0  0  0  0  0  0  0  0  0  0  0  0
    8.1704    2.1132   -0.3151 O   0  0  0  0  0  0  0  0  0  0  0  0
    7.0065    1.4116   -0.2654 C   0  0  0  0  0  0  0  0  0  0  0  0
    7.0304    0.0253   -0.3081 C   0  0  0  0  0  0  0  0  0  0  0  0
    5.8490   -0.6879   -0.2582 C   0  0  0  0  0  0  0  0  0  0  0  0
    4.6367   -0.0168   -0.1651 C   0  0  0  0  0  0  0  0  0  0  0  0
    4.6133    1.3713   -0.1281 C   0  0  0  0  0  0  0  0  0  0  0  0
    5.7961    2.0827   -0.1724 C   0  0  0  0  0  0  0  0  0  0  0  0
    3.4386   -0.7390   -0.1143 N   0  0  0  0  0  0  0  0  0  0  0  0
    2.4392   -0.3635    0.7720 C   0  0  0  0  0  0  0  0  0  0  0  0
    2.7008    0.6207    1.7156 C   0  0  0  0  0  0  0  0  0  0  0  0
    1.6927    0.9894    2.5979 C   0  0  0  0  0  0  0  0  0  0  0  0
    0.4413    0.3425    2.4940 C   0  0  0  0  0  0  0  0  0  0  0  0
   -0.6074    0.6874    3.3791 C   0  0  0  0  0  0  0  0  0  0  0  0
   -0.3927    1.6579    4.3196 C   0  0  0  0  0  0  0  0  0  0  0  0
    0.9170    2.3087    4.4007 C   0  0  0  0  0  0  0  0  0  0  0  0
    1.1158    3.1694    5.2395 O   0  0  0  0  0  0  0  0  0  0  0  0
    1.9026    1.9595    3.5509 N   0  0  0  0  0  0  0  0  0  0  0  0
    2.7937    2.4089    3.6133 H   0  0  0  0  0  0  0  0  0  0  0  0
   -1.4756    2.0426    5.2545 C   0  0  0  0  0  0  0  0  0  0  0  0
   -2.3558    3.0729    4.9214 C   0  0  0  0  0  0  0  0  0  0  0  0
   -3.3668    3.4228    5.7949 C   0  0  0  0  0  0  0  0  0  0  0  0
   -3.5011    2.7618    7.0026 C   0  0  0  0  0  0  0  0  0  0  0  0
   -2.6281    1.7438    7.3416 C   0  0  0  0  0  0  0  0  0  0  0  0
   -1.6163    1.3802    6.4746 C   0  0  0  0  0  0  0  0  0  0  0  0
   -0.5218    0.1023    6.9020 Cl  0  0  0  0  0  0  0  0  0  0  0  0
   -2.1849    3.9082    3.4091 Cl  0  0  0  0  0  0  0  0  0  0  0  0
    0.2635   -0.6399    1.5123 C   0  0  0  0  0  0  0  0  0  0  0  0
    1.2503   -0.9526    0.7009 N   0  0  0  0  0  0  0  0  0  0  0  0
    9.4977    6.3954   -2.6918 H   0  0  0  0  0  0  0  0  0  0  0  0
   10.6139    7.7798   -2.6171 H   0  0  0  0  0  0  0  0  0  0  0  0
   10.9484    6.4256   -3.7227 H   0  0  0  0  0  0  0  0  0  0  0  0
   12.3619    6.3765   -1.6417 H   0  0  0  0  0  0  0  0  0  0  0  0
   11.3509    4.9244   -1.8357 H   0  0  0  0  0  0  0  0  0  0  0  0
   10.2733    8.2315   -0.9266 H   0  0  0  0  0  0  0  0  0  0  0  0
   10.0343    7.8840    0.8027 H   0  0  0  0  0  0  0  0  0  0  0  0
   12.0469    9.2484    0.5377 H   0  0  0  0  0  0  0  0  0  0  0  0
   12.5227    7.6078    1.0379 H   0  0  0  0  0  0  0  0  0  0  0  0
   12.7017    8.1072   -0.6612 H   0  0  0  0  0  0  0  0  0  0  0  0
    8.7764    6.0265   -1.1274 H   0  0  0  0  0  0  0  0  0  0  0  0
    8.8842    5.9736    0.6485 H   0  0  0  0  0  0  0  0  0  0  0  0
   10.0634    3.7966    0.5122 H   0  0  0  0  0  0  0  0  0  0  0  0
    9.9557    3.8495   -1.2637 H   0  0  0  0  0  0  0  0  0  0  0  0
    7.4810    3.8901   -1.1124 H   0  0  0  0  0  0  0  0  0  0  0  0
    7.5887    3.8373    0.6635 H   0  0  0  0  0  0  0  0  0  0  0  0
    7.9733   -0.4964   -0.3809 H   0  0  0  0  0  0  0  0  0  0  0  0
    5.8678   -1.7672   -0.2911 H   0  0  0  0  0  0  0  0  0  0  0  0
    3.6707    1.8940   -0.0603 H   0  0  0  0  0  0  0  0  0  0  0  0
    5.7784    3.1620   -0.1392 H   0  0  0  0  0  0  0  0  0  0  0  0
    3.3070   -1.5019   -0.6988 H   0  0  0  0  0  0  0  0  0  0  0  0
    3.6713    1.0921    1.7627 H   0  0  0  0  0  0  0  0  0  0  0  0
   -1.5661    0.1951    3.3098 H   0  0  0  0  0  0  0  0  0  0  0  0
   -4.0515    4.2170    5.5363 H   0  0  0  0  0  0  0  0  0  0  0  0
   -4.2908    3.0420    7.6840 H   0  0  0  0  0  0  0  0  0  0  0  0
   -2.7381    1.2319    8.2862 H   0  0  0  0  0  0  0  0  0  0  0  0
   -0.6879   -1.1427    1.4208 H   0  0  0  0  0  0  0  0  0  0  0  0
   10.7284    6.2483   -0.3256 N   0  3  0  0  0  0  0  0  0  0  0  0
   11.3029    5.7999    0.3977 H   0  0  0  0  0  0  0  0  0  0  0  0
  1  2  1  0  0  0  0
  1 36  1  0  0  0  0
  1 37  1  0  0  0  0
  1 38  1  0  0  0  0
  2 39  1  0  0  0  0
  2 40  1  0  0  0  0
  2 63  1  0  0  0  0
  3  4  1  0  0  0  0
  3 41  1  0  0  0  0
  3 42  1  0  0  0  0
  3 63  1  0  0  0  0
  4 43  1  0  0  0  0
  4 44  1  0  0  0  0
  4 45  1  0  0  0  0
  5  6  1  0  0  0  0
  5 46  1  0  0  0  0
  5 47  1  0  0  0  0
  5 63  1  0  0  0  0
  6  7  1  0  0  0  0
  6 48  1  0  0  0  0
  6 49  1  0  0  0  0
  7  8  1  0  0  0  0
  7 50  1  0  0  0  0
  7 51  1  0  0  0  0
  8  9  1  0  0  0  0
  9 14  2  0  0  0  0
  9 10  1  0  0  0  0
 10 11  2  0  0  0  0
 10 52  1  0  0  0  0
 11 12  1  0  0  0  0
 11 53  1  0  0  0  0
 12 13  2  0  0  0  0
 12 15  1  0  0  0  0
 13 14  1  0  0  0  0
 13 54  1  0  0  0  0
 14 55  1  0  0  0  0
 15 16  1  0  0  0  0
 15 56  1  0  0  0  0
 16 35  2  0  0  0  0
 16 17  1  0  0  0  0
 17 18  2  0  0  0  0
 17 57  1  0  0  0  0
 18 24  1  0  0  0  0
 18 19  1  0  0  0  0
 19 20  1  0  0  0  0
 19 34  2  0  0  0  0
 20 21  2  0  0  0  0
 20 58  1  0  0  0  0
 21 22  1  0  0  0  0
 21 26  1  0  0  0  0
 22 23  2  0  0  0  0
 22 24  1  0  0  0  0
 24 25  1  0  0  0  0
 26 31  2  0  0  0  0
 26 27  1  0  0  0  0
 27 28  2  0  0  0  0
 27 33  1  0  0  0  0
 28 29  1  0  0  0  0
 28 59  1  0  0  0  0
 29 30  2  0  0  0  0
 29 60  1  0  0  0  0
 30 31  1  0  0  0  0
 30 61  1  0  0  0  0
 31 32  1  0  0  0  0
 34 35  1  0  0  0  0
 34 62  1  0  0  0  0
 63 64  1  0  0  0  0
M  CHG  1  63   1
M  END
$$$$
ZINC03815556
  -OEChem-08230709403D

 44 47  0     0  0  0  0  0  0999 V2000
   -1.0612    5.4742    7.0888 C   0  0  0  0  0  0  0  0  0  0  0  0
   -2.4560    5.0620    7.2641 N   0  0  0  0  0  0  0  0  0  0  0  0
   -3.0219    4.1848    6.3737 C   0  0  0  0  0  0  0  0  0  0  0  0
   -4.3648    3.7774    6.5283 C   0  0  0  0  0  0  0  0  0  0  0  0
   -5.1384    4.2707    7.6036 C   0  0  0  0  0  0  0  0  0  0  0  0
   -4.5651    5.1453    8.4873 C   0  0  0  0  0  0  0  0  0  0  0  0
   -3.1697    5.5475    8.2981 C   0  0  0  0  0  0  0  0  0  0  0  0
   -2.6518    6.3249    9.0799 O   0  0  0  0  0  0  0  0  0  0  0  0
   -5.3495    5.6803    9.6247 C   0  0  0  0  0  0  0  0  0  0  0  0
   -6.0758    6.8630    9.4802 C   0  0  0  0  0  0  0  0  0  0  0  0
   -6.8088    7.3538   10.5430 C   0  0  0  0  0  0  0  0  0  0  0  0
   -6.8159    6.6809   11.7516 C   0  0  0  0  0  0  0  0  0  0  0  0
   -6.0939    5.5108   11.9030 C   0  0  0  0  0  0  0  0  0  0  0  0
   -5.3606    5.0067   10.8467 C   0  0  0  0  0  0  0  0  0  0  0  0
   -4.4542    3.5387   11.0391 Cl  0  0  0  0  0  0  0  0  0  0  0  0
   -6.0629    7.7124    7.9663 Cl  0  0  0  0  0  0  0  0  0  0  0  0
   -4.9055    2.8799    5.5953 C   0  0  0  0  0  0  0  0  0  0  0  0
   -4.1386    2.4569    4.6078 N   0  0  0  0  0  0  0  0  0  0  0  0
   -2.8769    2.8578    4.4967 C   0  0  0  0  0  0  0  0  0  0  0  0
   -2.3228    3.7034    5.3522 N   0  0  0  0  0  0  0  0  0  0  0  0
   -2.1168    2.3794    3.4473 N   0  0  0  0  0  0  0  0  0  0  0  0
   -2.7097    1.5834    2.4589 C   0  0  0  0  0  0  0  0  0  0  0  0
   -4.0688    1.6746    2.2034 C   0  0  0  0  0  0  0  0  0  0  0  0
   -4.6315    0.9267    1.2733 N   0  0  0  0  0  0  0  0  0  0  0  0
   -3.9351    0.0687    0.5525 C   0  0  0  0  0  0  0  0  0  0  0  0
   -2.5750   -0.0779    0.7408 C   0  0  0  0  0  0  0  0  0  0  0  0
   -1.9395    0.6848    1.7145 C   0  0  0  0  0  0  0  0  0  0  0  0
   -0.6043    0.5640    1.9328 O   0  0  0  0  0  0  0  0  0  0  0  0
    0.1025   -0.3793    1.1250 C   0  0  0  0  0  0  0  0  0  0  0  0
   -1.0218    6.3656    6.4627 H   0  0  0  0  0  0  0  0  0  0  0  0
   -0.6222    5.6941    8.0620 H   0  0  0  0  0  0  0  0  0  0  0  0
   -0.5018    4.6698    6.6112 H   0  0  0  0  0  0  0  0  0  0  0  0
   -6.1660    3.9619    7.7265 H   0  0  0  0  0  0  0  0  0  0  0  0
   -7.3744    8.2670   10.4314 H   0  0  0  0  0  0  0  0  0  0  0  0
   -7.3875    7.0711   12.5807 H   0  0  0  0  0  0  0  0  0  0  0  0
   -6.1033    4.9905   12.8493 H   0  0  0  0  0  0  0  0  0  0  0  0
   -5.9290    2.5459    5.6806 H   0  0  0  0  0  0  0  0  0  0  0  0
   -1.1725    2.5948    3.3947 H   0  0  0  0  0  0  0  0  0  0  0  0
   -4.6740    2.3651    2.7720 H   0  0  0  0  0  0  0  0  0  0  0  0
   -4.4353   -0.5240   -0.1991 H   0  0  0  0  0  0  0  0  0  0  0  0
   -2.0127   -0.7794    0.1423 H   0  0  0  0  0  0  0  0  0  0  0  0
   -0.3114   -1.3752    1.2831 H   0  0  0  0  0  0  0  0  0  0  0  0
    1.1570   -0.3760    1.4010 H   0  0  0  0  0  0  0  0  0  0  0  0
    0.0010   -0.1063    0.0746 H   0  0  0  0  0  0  0  0  0  0  0  0
  1  2  1  0  0  0  0
  1 30  1  0  0  0  0
  1 31  1  0  0  0  0
  1 32  1  0  0  0  0
  2  7  1  0  0  0  0
  2  3  1  0  0  0  0
  3 20  2  0  0  0  0
  3  4  1  0  0  0  0
  4  5  1  0  0  0  0
  4 17  2  0  0  0  0
  5  6  2  0  0  0  0
  5 33  1  0  0  0  0
  6  7  1  0  0  0  0
  6  9  1  0  0  0  0
  7  8  2  0  0  0  0
  9 14  2  0  0  0  0
  9 10  1  0  0  0  0
 10 11  2  0  0  0  0
 10 16  1  0  0  0  0
 11 12  1  0  0  0  0
 11 34  1  0  0  0  0
 12 13  2  0  0  0  0
 12 35  1  0  0  0  0
 13 14  1  0  0  0  0
 13 36  1  0  0  0  0
 14 15  1  0  0  0  0
 17 18  1  0  0  0  0
 17 37  1  0  0  0  0
 18 19  2  0  0  0  0
 19 20  1  0  0  0  0
 19 21  1  0  0  0  0
 21 22  1  0  0  0  0
 21 38  1  0  0  0  0
 22 27  2  0  0  0  0
 22 23  1  0  0  0  0
 23 24  2  0  0  0  0
 23 39  1  0  0  0  0
 24 25  1  0  0  0  0
 25 26  2  0  0  0  0
 25 40  1  0  0  0  0
 26 27  1  0  0  0  0
 26 41  1  0  0  0  0
 27 28  1  0  0  0  0
 28 29  1  0  0  0  0
 29 42  1  0  0  0  0
 29 43  1  0  0  0  0
 29 44  1  0  0  0  0
M  END
$$$$
ZINC03815556
  -OEChem-08230709403D

 45 48  0     0  0  0  0  0  0999 V2000
   -1.0612    5.4742    7.0888 C   0  0  0  0  0  0  0  0  0  0  0  0
   -2.4560    5.0620    7.2641 N   0  0  0  0  0  0  0  0  0  0  0  0
   -3.0219    4.1848    6.3737 C   0  0  0  0  0  0  0  0  0  0  0  0
   -4.3648    3.7774    6.5283 C   0  0  0  0  0  0  0  0  0  0  0  0
   -5.1384    4.2707    7.6036 C   0  0  0  0  0  0  0  0  0  0  0  0
   -4.5651    5.1453    8.4873 C   0  0  0  0  0  0  0  0  0  0  0  0
   -3.1697    5.5475    8.2981 C   0  0  0  0  0  0  0  0  0  0  0  0
   -2.6518    6.3249    9.0799 O   0  0  0  0  0  0  0  0  0  0  0  0
   -5.3495    5.6803    9.6247 C   0  0  0  0  0  0  0  0  0  0  0  0
   -6.0758    6.8630    9.4802 C   0  0  0  0  0  0  0  0  0  0  0  0
   -6.8088    7.3538   10.5430 C   0  0  0  0  0  0  0  0  0  0  0  0
   -6.8159    6.6809   11.7516 C   0  0  0  0  0  0  0  0  0  0  0  0
   -6.0939    5.5108   11.9030 C   0  0  0  0  0  0  0  0  0  0  0  0
   -5.3606    5.0067   10.8467 C   0  0  0  0  0  0  0  0  0  0  0  0
   -4.4542    3.5387   11.0391 Cl  0  0  0  0  0  0  0  0  0  0  0  0
   -6.0629    7.7124    7.9663 Cl  0  0  0  0  0  0  0  0  0  0  0  0
   -4.9055    2.8799    5.5953 C   0  0  0  0  0  0  0  0  0  0  0  0
   -4.1386    2.4569    4.6078 N   0  0  0  0  0  0  0  0  0  0  0  0
   -2.8769    2.8578    4.4967 C   0  0  0  0  0  0  0  0  0  0  0  0
   -2.3228    3.7034    5.3522 N   0  0  0  0  0  0  0  0  0  0  0  0
   -2.1168    2.3794    3.4473 N   0  0  0  0  0  0  0  0  0  0  0  0
   -2.7097    1.5834    2.4589 C   0  0  0  0  0  0  0  0  0  0  0  0
   -4.0688    1.6746    2.2034 C   0  0  0  0  0  0  0  0  0  0  0  0
   -3.9351    0.0687    0.5525 C   0  0  0  0  0  0  0  0  0  0  0  0
   -2.5750   -0.0779    0.7408 C   0  0  0  0  0  0  0  0  0  0  0  0
   -1.9395    0.6848    1.7145 C   0  0  0  0  0  0  0  0  0  0  0  0
   -0.6043    0.5640    1.9328 O   0  0  0  0  0  0  0  0  0  0  0  0
    0.1025   -0.3793    1.1250 C   0  0  0  0  0  0  0  0  0  0  0  0
   -1.0218    6.3656    6.4627 H   0  0  0  0  0  0  0  0  0  0  0  0
   -0.6222    5.6941    8.0620 H   0  0  0  0  0  0  0  0  0  0  0  0
   -0.5018    4.6698    6.6112 H   0  0  0  0  0  0  0  0  0  0  0  0
   -6.1660    3.9619    7.7265 H   0  0  0  0  0  0  0  0  0  0  0  0
   -7.3744    8.2670   10.4314 H   0  0  0  0  0  0  0  0  0  0  0  0
   -7.3875    7.0711   12.5807 H   0  0  0  0  0  0  0  0  0  0  0  0
   -6.1033    4.9905   12.8493 H   0  0  0  0  0  0  0  0  0  0  0  0
   -5.9290    2.5459    5.6806 H   0  0  0  0  0  0  0  0  0  0  0  0
   -1.1725    2.5948    3.3947 H   0  0  0  0  0  0  0  0  0  0  0  0
   -4.6740    2.3651    2.7720 H   0  0  0  0  0  0  0  0  0  0  0  0
   -4.4353   -0.5240   -0.1991 H   0  0  0  0  0  0  0  0  0  0  0  0
   -2.0127   -0.7794    0.1423 H   0  0  0  0  0  0  0  0  0  0  0  0
   -0.3114   -1.3752    1.2831 H   0  0  0  0  0  0  0  0  0  0  0  0
    1.1570   -0.3760    1.4010 H   0  0  0  0  0  0  0  0  0  0  0  0
    0.0010   -0.1063    0.0746 H   0  0  0  0  0  0  0  0  0  0  0  0
   -4.7109    0.9336    1.2601 N   0  3  0  0  0  0  0  0  0  0  0  0
   -5.7200    1.0220    1.0924 H   0  0  0  0  0  0  0  0  0  0  0  0
  1  2  1  0  0  0  0
  1 29  1  0  0  0  0
  1 30  1  0  0  0  0
  1 31  1  0  0  0  0
  2  7  1  0  0  0  0
  2  3  1  0  0  0  0
  3 20  2  0  0  0  0
  3  4  1  0  0  0  0
  4  5  1  0  0  0  0
  4 17  2  0  0  0  0
  5  6  2  0  0  0  0
  5 32  1  0  0  0  0
  6  7  1  0  0  0  0
  6  9  1  0  0  0  0
  7  8  2  0  0  0  0
  9 14  2  0  0  0  0
  9 10  1  0  0  0  0
 10 11  2  0  0  0  0
 10 16  1  0  0  0  0
 11 12  1  0  0  0  0
 11 33  1  0  0  0  0
 12 13  2  0  0  0  0
 12 34  1  0  0  0  0
 13 14  1  0  0  0  0
 13 35  1  0  0  0  0
 14 15  1  0  0  0  0
 17 18  1  0  0  0  0
 17 36  1  0  0  0  0
 18 19  2  0  0  0  0
 19 20  1  0  0  0  0
 19 21  1  0  0  0  0
 21 22  1  0  0  0  0
 21 37  1  0  0  0  0
 22 26  2  0  0  0  0
 22 23  1  0  0  0  0
 23 38  1  0  0  0  0
 23 44  2  0  0  0  0
 24 25  2  0  0  0  0
 24 39  1  0  0  0  0
 24 44  1  0  0  0  0
 25 26  1  0  0  0  0
 25 40  1  0  0  0  0
 26 27  1  0  0  0  0
 27 28  1  0  0  0  0
 28 41  1  0  0  0  0
 28 42  1  0  0  0  0
 28 43  1  0  0  0  0
 44 45  1  0  0  0  0
M  CHG  1  44   1
M  END
$$$$
ZINC03815557
  -OEChem-08230709403D

 34 36  0     0  0  0  0  0  0999 V2000
   -1.7150   -0.9970   -1.4288 C   0  0  0  0  0  0  0  0  0  0  0  0
   -1.2609   -0.7464    0.0106 C   0  0  0  0  0  0  0  0  0  0  0  0
    0.0021   -0.0041    0.0020 N   0  0  0  0  0  0  0  0  0  0  0  0
    1.1914   -0.6878   -0.0130 C   0  0  0  0  0  0  0  0  0  0  0  0
    2.4173    0.0122   -0.0210 C   0  0  0  0  0  0  0  0  0  0  0  0
    2.4293    1.4259   -0.0135 C   0  0  0  0  0  0  0  0  0  0  0  0
    1.2376    2.0995    0.0015 C   0  0  0  0  0  0  0  0  0  0  0  0
   -0.0162    1.3427    0.0094 C   0  0  0  0  0  0  0  0  0  0  0  0
   -1.0810    1.9342    0.0177 O   0  0  0  0  0  0  0  0  0  0  0  0
    1.2165    3.5810    0.0102 C   0  0  0  0  0  0  0  0  0  0  0  0
    1.2124    4.2746    1.2210 C   0  0  0  0  0  0  0  0  0  0  0  0
    1.1975    5.6557    1.2220 C   0  0  0  0  0  0  0  0  0  0  0  0
    1.1760    6.3511    0.0264 C   0  0  0  0  0  0  0  0  0  0  0  0
    1.1746    5.6694   -1.1773 C   0  0  0  0  0  0  0  0  0  0  0  0
    1.1947    4.2885   -1.1923 C   0  0  0  0  0  0  0  0  0  0  0  0
    1.1923    3.4349   -2.7040 Cl  0  0  0  0  0  0  0  0  0  0  0  0
    1.2326    3.4037    2.7226 Cl  0  0  0  0  0  0  0  0  0  0  0  0
    3.6108   -0.7247   -0.0368 C   0  0  0  0  0  0  0  0  0  0  0  0
    3.5395   -2.0428   -0.0436 N   0  0  0  0  0  0  0  0  0  0  0  0
    2.3674   -2.6681   -0.0358 C   0  0  0  0  0  0  0  0  0  0  0  0
    1.2151   -2.0159   -0.0209 N   0  0  0  0  0  0  0  0  0  0  0  0
    2.3502   -4.0486   -0.0440 N   0  0  0  0  0  0  0  0  0  0  0  0
   -1.8577   -0.0429   -1.9361 H   0  0  0  0  0  0  0  0  0  0  0  0
   -0.9560   -1.5774   -1.9533 H   0  0  0  0  0  0  0  0  0  0  0  0
   -2.6547   -1.5493   -1.4224 H   0  0  0  0  0  0  0  0  0  0  0  0
   -1.1181   -1.7005    0.5179 H   0  0  0  0  0  0  0  0  0  0  0  0
   -2.0199   -0.1660    0.5352 H   0  0  0  0  0  0  0  0  0  0  0  0
    3.3644    1.9662   -0.0193 H   0  0  0  0  0  0  0  0  0  0  0  0
    1.1985    6.1939    2.1584 H   0  0  0  0  0  0  0  0  0  0  0  0
    1.1599    7.4309    0.0327 H   0  0  0  0  0  0  0  0  0  0  0  0
    1.1581    6.2182   -2.1073 H   0  0  0  0  0  0  0  0  0  0  0  0
    4.5679   -0.2243   -0.0436 H   0  0  0  0  0  0  0  0  0  0  0  0
    1.5041   -4.5231   -0.0389 H   0  0  0  0  0  0  0  0  0  0  0  0
    3.1840   -4.5440   -0.0550 H   0  0  0  0  0  0  0  0  0  0  0  0
  1  2  1  0  0  0  0
  1 23  1  0  0  0  0
  1 24  1  0  0  0  0
  1 25  1  0  0  0  0
  2  3  1  0  0  0  0
  2 26  1  0  0  0  0
  2 27  1  0  0  0  0
  3  8  1  0  0  0  0
  3  4  1  0  0  0  0
  4 21  2  0  0  0  0
  4  5  1  0  0  0  0
  5  6  1  0  0  0  0
  5 18  2  0  0  0  0
  6  7  2  0  0  0  0
  6 28  1  0  0  0  0
  7  8  1  0  0  0  0
  7 10  1  0  0  0  0
  8  9  2  0  0  0  0
 10 15  2  0  0  0  0
 10 11  1  0  0  0  0
 11 12  2  0  0  0  0
 11 17  1  0  0  0  0
 12 13  1  0  0  0  0
 12 29  1  0  0  0  0
 13 14  2  0  0  0  0
 13 30  1  0  0  0  0
 14 15  1  0  0  0  0
 14 31  1  0  0  0  0
 15 16  1  0  0  0  0
 18 19  1  0  0  0  0
 18 32  1  0  0  0  0
 19 20  2  0  0  0  0
 20 21  1  0  0  0  0
 20 22  1  0  0  0  0
 22 33  1  0  0  0  0
 22 34  1  0  0  0  0
M  END
$$$$
ZINC03815559
  -OEChem-08230709403D

 48 50  0     0  0  0  0  0  0999 V2000
   -2.2664    2.6406    5.7207 C   0  0  0  0  0  0  0  0  0  0  0  0
   -1.0652    1.8152    5.8687 N   0  0  0  0  0  0  0  0  0  0  0  0
   -0.4094    1.3640    4.7512 C   0  0  0  0  0  0  0  0  0  0  0  0
    0.7497    0.5679    4.8763 C   0  0  0  0  0  0  0  0  0  0  0  0
    1.2453    0.2291    6.1562 C   0  0  0  0  0  0  0  0  0  0  0  0
    0.5843    0.6839    7.2655 C   0  0  0  0  0  0  0  0  0  0  0  0
   -0.6156    1.5073    7.1005 C   0  0  0  0  0  0  0  0  0  0  0  0
   -1.2098    1.9161    8.0821 O   0  0  0  0  0  0  0  0  0  0  0  0
    1.0781    0.3458    8.6209 C   0  0  0  0  0  0  0  0  0  0  0  0
    0.6245   -0.8061    9.2648 C   0  0  0  0  0  0  0  0  0  0  0  0
    1.0925   -1.1181   10.5262 C   0  0  0  0  0  0  0  0  0  0  0  0
    2.0012   -0.2863   11.1554 C   0  0  0  0  0  0  0  0  0  0  0  0
    2.4509    0.8598   10.5247 C   0  0  0  0  0  0  0  0  0  0  0  0
    1.9945    1.1808    9.2613 C   0  0  0  0  0  0  0  0  0  0  0  0
    2.5591    2.6202    8.4720 Cl  0  0  0  0  0  0  0  0  0  0  0  0
   -0.5209   -1.8478    8.4796 Cl  0  0  0  0  0  0  0  0  0  0  0  0
    1.3899    0.1267    3.7087 C   0  0  0  0  0  0  0  0  0  0  0  0
    0.8797    0.4693    2.5405 N   0  0  0  0  0  0  0  0  0  0  0  0
   -0.2103    1.2245    2.4609 C   0  0  0  0  0  0  0  0  0  0  0  0
   -0.8488    1.6644    3.5342 N   0  0  0  0  0  0  0  0  0  0  0  0
   -0.6984    1.5583    1.2133 N   0  0  0  0  0  0  0  0  0  0  0  0
   -0.0127    1.0858    0.0080 C   0  0  0  0  0  0  0  0  0  0  0  0
   -0.7527    1.5927   -1.2315 C   0  0  0  0  0  0  0  0  0  0  0  0
   -0.0366    1.0992   -2.4903 C   0  0  0  0  0  0  0  0  0  0  0  0
   -0.7766    1.6061   -3.7298 C   0  0  0  0  0  0  0  0  0  0  0  0
   -0.0604    1.1126   -4.9886 C   0  0  0  0  0  0  0  0  0  0  0  0
   -0.7893    1.6119   -6.2095 C   0  0  0  0  0  0  0  0  0  0  0  0
   -1.7799    2.2925   -6.0856 O   0  0  0  0  0  0  0  0  0  0  0  0
   -3.1464    1.9984    5.6843 H   0  0  0  0  0  0  0  0  0  0  0  0
   -2.3472    3.3201    6.5692 H   0  0  0  0  0  0  0  0  0  0  0  0
   -2.1993    3.2176    4.7983 H   0  0  0  0  0  0  0  0  0  0  0  0
    2.1320   -0.3790    6.2574 H   0  0  0  0  0  0  0  0  0  0  0  0
    0.7451   -2.0112   11.0242 H   0  0  0  0  0  0  0  0  0  0  0  0
    2.3610   -0.5326   12.1435 H   0  0  0  0  0  0  0  0  0  0  0  0
    3.1601    1.5053   11.0215 H   0  0  0  0  0  0  0  0  0  0  0  0
    2.2790   -0.4839    3.7644 H   0  0  0  0  0  0  0  0  0  0  0  0
   -1.4954    2.1056    1.1349 H   0  0  0  0  0  0  0  0  0  0  0  0
    0.0021   -0.0041    0.0020 H   0  0  0  0  0  0  0  0  0  0  0  0
    1.0099    1.4631    0.0003 H   0  0  0  0  0  0  0  0  0  0  0  0
   -1.7753    1.2154   -1.2238 H   0  0  0  0  0  0  0  0  0  0  0  0
   -0.7675    2.6825   -1.2255 H   0  0  0  0  0  0  0  0  0  0  0  0
    0.9860    1.4765   -2.4981 H   0  0  0  0  0  0  0  0  0  0  0  0
   -0.0218    0.0093   -2.4963 H   0  0  0  0  0  0  0  0  0  0  0  0
   -1.7991    1.2288   -3.7221 H   0  0  0  0  0  0  0  0  0  0  0  0
   -0.7913    2.6960   -3.7239 H   0  0  0  0  0  0  0  0  0  0  0  0
    0.9622    1.4899   -4.9964 H   0  0  0  0  0  0  0  0  0  0  0  0
   -0.0456    0.0228   -4.9946 H   0  0  0  0  0  0  0  0  0  0  0  0
   -0.3380    1.3004   -7.4347 O   0  5  0  0  0  0  0  0  0  0  0  0
  1  2  1  0  0  0  0
  1 29  1  0  0  0  0
  1 30  1  0  0  0  0
  1 31  1  0  0  0  0
  2  7  1  0  0  0  0
  2  3  1  0  0  0  0
  3 20  2  0  0  0  0
  3  4  1  0  0  0  0
  4  5  1  0  0  0  0
  4 17  2  0  0  0  0
  5  6  2  0  0  0  0
  5 32  1  0  0  0  0
  6  7  1  0  0  0  0
  6  9  1  0  0  0  0
  7  8  2  0  0  0  0
  9 14  2  0  0  0  0
  9 10  1  0  0  0  0
 10 11  2  0  0  0  0
 10 16  1  0  0  0  0
 11 12  1  0  0  0  0
 11 33  1  0  0  0  0
 12 13  2  0  0  0  0
 12 34  1  0  0  0  0
 13 14  1  0  0  0  0
 13 35  1  0  0  0  0
 14 15  1  0  0  0  0
 17 18  1  0  0  0  0
 17 36  1  0  0  0  0
 18 19  2  0  0  0  0
 19 20  1  0  0  0  0
 19 21  1  0  0  0  0
 21 22  1  0  0  0  0
 21 37  1  0  0  0  0
 22 23  1  0  0  0  0
 22 38  1  0  0  0  0
 22 39  1  0  0  0  0
 23 24  1  0  0  0  0
 23 40  1  0  0  0  0
 23 41  1  0  0  0  0
 24 25  1  0  0  0  0
 24 42  1  0  0  0  0
 24 43  1  0  0  0  0
 25 26  1  0  0  0  0
 25 44  1  0  0  0  0
 25 45  1  0  0  0  0
 26 27  1  0  0  0  0
 26 46  1  0  0  0  0
 26 47  1  0  0  0  0
 27 28  2  0  0  0  0
 27 48  1  0  0  0  0
M  CHG  1  48  -1
M  END
$$$$
ZINC03815788
  -OEChem-08230709403D

 35 37  0     0  0  0  0  0  0999 V2000
    5.8557    3.5113   -0.0346 C   0  0  0  0  0  0  0  0  0  0  0  0
    4.6205    4.2299   -0.0186 O   0  0  0  0  0  0  0  0  0  0  0  0
    3.4780    3.4932   -0.0118 C   0  0  0  0  0  0  0  0  0  0  0  0
    3.5529    2.1309   -0.0202 C   0  0  0  0  0  0  0  0  0  0  0  0
    2.3718    1.3695   -0.0132 C   0  0  0  0  0  0  0  0  0  0  0  0
    2.4129   -0.0352   -0.0216 C   0  0  0  0  0  0  0  0  0  0  0  0
    1.2077   -0.7224   -0.0138 C   0  0  0  0  0  0  0  0  0  0  0  0
    0.0021   -0.0041    0.0020 C   0  0  0  0  0  0  0  0  0  0  0  0
   -0.0157    1.3049    0.0092 N   0  0  0  0  0  0  0  0  0  0  0  0
    1.1131    2.0230    0.0023 C   0  0  0  0  0  0  0  0  0  0  0  0
    1.0711    3.4273    0.0111 C   0  0  0  0  0  0  0  0  0  0  0  0
    2.2339    4.1416    0.0034 C   0  0  0  0  0  0  0  0  0  0  0  0
    2.1861    5.4996    0.0111 O   0  0  0  0  0  0  0  0  0  0  0  0
    0.8909    6.1031    0.0265 C   0  0  0  0  0  0  0  0  0  0  0  0
    1.1934   -2.2060   -0.0217 C   0  0  0  0  0  0  0  0  0  0  0  0
    1.7188   -2.9260    1.0732 C   0  0  0  0  0  0  0  0  0  0  0  0
    1.6915   -4.2872    1.0466 C   0  0  0  0  0  0  0  0  0  0  0  0
    1.1405   -4.9457   -0.0669 C   0  0  0  0  0  0  0  0  0  0  0  0
    1.1113   -6.1654   -0.0985 O   0  0  0  0  0  0  0  0  0  0  0  0
    0.6500   -4.2368   -1.1006 N   0  0  0  0  0  0  0  0  0  0  0  0
    1.5124   -6.5302    0.7418 H   0  0  0  0  0  0  0  0  0  0  0  0
    0.6723   -2.8810   -1.0875 C   0  0  0  0  0  0  0  0  0  0  0  0
    5.9027    2.8895   -0.9286 H   0  0  0  0  0  0  0  0  0  0  0  0
    6.6865    4.2169   -0.0385 H   0  0  0  0  0  0  0  0  0  0  0  0
    5.9199    2.8795    0.8513 H   0  0  0  0  0  0  0  0  0  0  0  0
    4.5150    1.6403   -0.0326 H   0  0  0  0  0  0  0  0  0  0  0  0
    3.3545   -0.5640   -0.0334 H   0  0  0  0  0  0  0  0  0  0  0  0
   -0.9332   -0.5440    0.0080 H   0  0  0  0  0  0  0  0  0  0  0  0
    0.1208    3.9403    0.0231 H   0  0  0  0  0  0  0  0  0  0  0  0
    0.3529    5.7861    0.9200 H   0  0  0  0  0  0  0  0  0  0  0  0
    0.9956    7.1880    0.0313 H   0  0  0  0  0  0  0  0  0  0  0  0
    0.3361    5.7955   -0.8599 H   0  0  0  0  0  0  0  0  0  0  0  0
    2.1370   -2.4038    1.9210 H   0  0  0  0  0  0  0  0  0  0  0  0
    2.0817   -4.8561    1.8776 H   0  0  0  0  0  0  0  0  0  0  0  0
    0.2743   -2.3307   -1.9274 H   0  0  0  0  0  0  0  0  0  0  0  0
  1  2  1  0  0  0  0
  1 23  1  0  0  0  0
  1 24  1  0  0  0  0
  1 25  1  0  0  0  0
  2  3  1  0  0  0  0
  3 12  2  0  0  0  0
  3  4  1  0  0  0  0
  4  5  2  0  0  0  0
  4 26  1  0  0  0  0
  5 10  1  0  0  0  0
  5  6  1  0  0  0  0
  6  7  2  0  0  0  0
  6 27  1  0  0  0  0
  7  8  1  0  0  0  0
  7 15  1  0  0  0  0
  8  9  2  0  0  0  0
  8 28  1  0  0  0  0
  9 10  1  0  0  0  0
 10 11  2  0  0  0  0
 11 12  1  0  0  0  0
 11 29  1  0  0  0  0
 12 13  1  0  0  0  0
 13 14  1  0  0  0  0
 14 30  1  0  0  0  0
 14 31  1  0  0  0  0
 14 32  1  0  0  0  0
 15 16  2  0  0  0  0
 15 22  1  0  0  0  0
 16 33  1  0  0  0  0
 16 17  1  0  0  0  0
 17 34  1  0  0  0  0
 17 18  2  0  0  0  0
 18 20  1  0  0  0  0
 18 19  1  0  0  0  0
 19 21  1  0  0  0  0
 20 22  2  0  0  0  0
 22 35  1  0  0  0  0
M  END
$$$$
ZINC03815788
  -OEChem-08230709403D

 35 37  0     0  0  0  0  0  0999 V2000
    5.8557    3.5113   -0.0346 C   0  0  0  0  0  0  0  0  0  0  0  0
    4.6205    4.2299   -0.0186 O   0  0  0  0  0  0  0  0  0  0  0  0
    3.4780    3.4932   -0.0118 C   0  0  0  0  0  0  0  0  0  0  0  0
    3.5529    2.1309   -0.0202 C   0  0  0  0  0  0  0  0  0  0  0  0
    2.3718    1.3695   -0.0132 C   0  0  0  0  0  0  0  0  0  0  0  0
    2.4129   -0.0352   -0.0216 C   0  0  0  0  0  0  0  0  0  0  0  0
    1.2077   -0.7224   -0.0138 C   0  0  0  0  0  0  0  0  0  0  0  0
    0.0021   -0.0041    0.0020 C   0  0  0  0  0  0  0  0  0  0  0  0
   -0.0157    1.3049    0.0092 N   0  0  0  0  0  0  0  0  0  0  0  0
    1.1131    2.0230    0.0023 C   0  0  0  0  0  0  0  0  0  0  0  0
    1.0711    3.4273    0.0111 C   0  0  0  0  0  0  0  0  0  0  0  0
    2.2339    4.1416    0.0034 C   0  0  0  0  0  0  0  0  0  0  0  0
    2.1861    5.4996    0.0111 O   0  0  0  0  0  0  0  0  0  0  0  0
    0.8909    6.1031    0.0265 C   0  0  0  0  0  0  0  0  0  0  0  0
    1.1934   -2.2060   -0.0217 C   0  0  0  0  0  0  0  0  0  0  0  0
    1.7188   -2.9260    1.0732 C   0  0  0  0  0  0  0  0  0  0  0  0
    1.6915   -4.2872    1.0466 C   0  0  0  0  0  0  0  0  0  0  0  0
    1.1405   -4.9457   -0.0669 C   0  0  0  0  0  0  0  0  0  0  0  0
    1.1113   -6.1654   -0.0985 O   0  0  0  0  0  0  0  0  0  0  0  0
    0.6500   -4.2368   -1.1006 N   0  0  0  0  0  0  0  0  0  0  0  0
    1.5124   -6.5302    0.7418 H   0  0  0  0  0  0  0  0  0  0  0  0
    0.6723   -2.8810   -1.0875 C   0  0  0  0  0  0  0  0  0  0  0  0
    5.9027    2.8895   -0.9286 H   0  0  0  0  0  0  0  0  0  0  0  0
    6.6865    4.2169   -0.0385 H   0  0  0  0  0  0  0  0  0  0  0  0
    5.9199    2.8795    0.8513 H   0  0  0  0  0  0  0  0  0  0  0  0
    4.5150    1.6403   -0.0326 H   0  0  0  0  0  0  0  0  0  0  0  0
    3.3545   -0.5640   -0.0334 H   0  0  0  0  0  0  0  0  0  0  0  0
   -0.9332   -0.5440    0.0080 H   0  0  0  0  0  0  0  0  0  0  0  0
    0.1208    3.9403    0.0231 H   0  0  0  0  0  0  0  0  0  0  0  0
    0.3529    5.7861    0.9200 H   0  0  0  0  0  0  0  0  0  0  0  0
    0.9956    7.1880    0.0313 H   0  0  0  0  0  0  0  0  0  0  0  0
    0.3361    5.7955   -0.8599 H   0  0  0  0  0  0  0  0  0  0  0  0
    2.1370   -2.4038    1.9210 H   0  0  0  0  0  0  0  0  0  0  0  0
    2.0817   -4.8561    1.8776 H   0  0  0  0  0  0  0  0  0  0  0  0
    0.2743   -2.3307   -1.9274 H   0  0  0  0  0  0  0  0  0  0  0  0
  1  2  1  0  0  0  0
  1 23  1  0  0  0  0
  1 24  1  0  0  0  0
  1 25  1  0  0  0  0
  2  3  1  0  0  0  0
  3 12  2  0  0  0  0
  3  4  1  0  0  0  0
  4  5  2  0  0  0  0
  4 26  1  0  0  0  0
  5 10  1  0  0  0  0
  5  6  1  0  0  0  0
  6  7  2  0  0  0  0
  6 27  1  0  0  0  0
  7  8  1  0  0  0  0
  7 15  1  0  0  0  0
  8  9  2  0  0  0  0
  8 28  1  0  0  0  0
  9 10  1  0  0  0  0
 10 11  2  0  0  0  0
 11 12  1  0  0  0  0
 11 29  1  0  0  0  0
 12 13  1  0  0  0  0
 13 14  1  0  0  0  0
 14 30  1  0  0  0  0
 14 31  1  0  0  0  0
 14 32  1  0  0  0  0
 15 16  2  0  0  0  0
 15 22  1  0  0  0  0
 16 33  1  0  0  0  0
 16 17  1  0  0  0  0
 17 34  1  0  0  0  0
 17 18  2  0  0  0  0
 18 20  1  0  0  0  0
 18 19  1  0  0  0  0
 19 21  1  0  0  0  0
 20 22  2  0  0  0  0
 22 35  1  0  0  0  0
M  END
$$$$
ZINC03815789
  -OEChem-08230709403D

 38 40  0     0  0  0  0  0  0999 V2000
    1.2479    2.0188    0.0010 C   0  0  0  0  0  0  0  0  0  0  0  0
   -0.0163    1.3527    0.0095 O   0  0  0  0  0  0  0  0  0  0  0  0
    0.0021   -0.0041    0.0020 C   0  0  0  0  0  0  0  0  0  0  0  0
    1.2051   -0.7021   -0.0190 C   0  0  0  0  0  0  0  0  0  0  0  0
    1.1832   -2.0822   -0.0203 C   0  0  0  0  0  0  0  0  0  0  0  0
    0.0422   -2.7460   -0.0130 N   0  0  0  0  0  0  0  0  0  0  0  0
   -1.1234   -2.1310    0.0014 C   0  0  0  0  0  0  0  0  0  0  0  0
   -1.1921   -0.7411    0.0095 C   0  0  0  0  0  0  0  0  0  0  0  0
   -2.5046   -0.0507    0.0252 C   0  0  0  0  0  0  0  0  0  0  0  0
   -3.4906   -0.4028   -0.8860 C   0  0  0  0  0  0  0  0  0  0  0  0
   -4.7163    0.2811   -0.8291 C   0  0  0  0  0  0  0  0  0  0  0  0
   -5.7605   -0.0227   -1.7199 C   0  0  0  0  0  0  0  0  0  0  0  0
   -6.9383    0.6601   -1.6373 C   0  0  0  0  0  0  0  0  0  0  0  0
   -7.1185    1.6630   -0.6721 C   0  0  0  0  0  0  0  0  0  0  0  0
   -6.1223    1.9790    0.2049 C   0  0  0  0  0  0  0  0  0  0  0  0
   -4.8964    1.2942    0.1472 C   0  0  0  0  0  0  0  0  0  0  0  0
   -3.9083    1.5886    0.9991 N   0  0  0  0  0  0  0  0  0  0  0  0
   -2.7606    0.9593    0.9651 C   0  0  0  0  0  0  0  0  0  0  0  0
   -8.3015    2.3288   -0.6105 O   0  0  0  0  0  0  0  0  0  0  0  0
   -8.4260    3.3388    0.3926 C   0  0  0  0  0  0  0  0  0  0  0  0
   -7.9482    0.3660   -2.4985 O   0  0  0  0  0  0  0  0  0  0  0  0
   -7.7035   -0.6648   -3.4575 C   0  0  0  0  0  0  0  0  0  0  0  0
    1.8173    1.7287    0.8840 H   0  0  0  0  0  0  0  0  0  0  0  0
    1.8004    1.7383   -0.8958 H   0  0  0  0  0  0  0  0  0  0  0  0
    1.0905    3.0973    0.0083 H   0  0  0  0  0  0  0  0  0  0  0  0
    2.1451   -0.1704   -0.0298 H   0  0  0  0  0  0  0  0  0  0  0  0
    2.1151   -2.6280   -0.0325 H   0  0  0  0  0  0  0  0  0  0  0  0
   -2.0342   -2.7114    0.0073 H   0  0  0  0  0  0  0  0  0  0  0  0
   -3.3207   -1.1797   -1.6168 H   0  0  0  0  0  0  0  0  0  0  0  0
   -5.6309   -0.7931   -2.4656 H   0  0  0  0  0  0  0  0  0  0  0  0
   -6.2757    2.7531    0.9422 H   0  0  0  0  0  0  0  0  0  0  0  0
   -1.9914    1.2266    1.6745 H   0  0  0  0  0  0  0  0  0  0  0  0
   -8.2900    2.8917    1.3773 H   0  0  0  0  0  0  0  0  0  0  0  0
   -7.6669    4.1046    0.2333 H   0  0  0  0  0  0  0  0  0  0  0  0
   -9.4161    3.7906    0.3323 H   0  0  0  0  0  0  0  0  0  0  0  0
   -8.5878   -0.7987   -4.0806 H   0  0  0  0  0  0  0  0  0  0  0  0
   -6.8567   -0.3847   -4.0839 H   0  0  0  0  0  0  0  0  0  0  0  0
   -7.4795   -1.5973   -2.9394 H   0  0  0  0  0  0  0  0  0  0  0  0
  1  2  1  0  0  0  0
  1 23  1  0  0  0  0
  1 24  1  0  0  0  0
  1 25  1  0  0  0  0
  2  3  1  0  0  0  0
  3  8  2  0  0  0  0
  3  4  1  0  0  0  0
  4  5  2  0  0  0  0
  4 26  1  0  0  0  0
  5  6  1  0  0  0  0
  5 27  1  0  0  0  0
  6  7  2  0  0  0  0
  7  8  1  0  0  0  0
  7 28  1  0  0  0  0
  8  9  1  0  0  0  0
  9 18  2  0  0  0  0
  9 10  1  0  0  0  0
 10 11  2  0  0  0  0
 10 29  1  0  0  0  0
 11 16  1  0  0  0  0
 11 12  1  0  0  0  0
 12 13  2  0  0  0  0
 12 30  1  0  0  0  0
 13 14  1  0  0  0  0
 13 21  1  0  0  0  0
 14 15  2  0  0  0  0
 14 19  1  0  0  0  0
 15 16  1  0  0  0  0
 15 31  1  0  0  0  0
 16 17  2  0  0  0  0
 17 18  1  0  0  0  0
 18 32  1  0  0  0  0
 19 20  1  0  0  0  0
 20 33  1  0  0  0  0
 20 34  1  0  0  0  0
 20 35  1  0  0  0  0
 21 22  1  0  0  0  0
 22 36  1  0  0  0  0
 22 37  1  0  0  0  0
 22 38  1  0  0  0  0
M  END
$$$$
ZINC03815789
  -OEChem-08230709403D

 39 41  0     0  0  0  0  0  0999 V2000
    1.2479    2.0188    0.0010 C   0  0  0  0  0  0  0  0  0  0  0  0
   -0.0163    1.3527    0.0095 O   0  0  0  0  0  0  0  0  0  0  0  0
    0.0021   -0.0041    0.0020 C   0  0  0  0  0  0  0  0  0  0  0  0
    1.2051   -0.7021   -0.0190 C   0  0  0  0  0  0  0  0  0  0  0  0
    1.1832   -2.0822   -0.0203 C   0  0  0  0  0  0  0  0  0  0  0  0
   -1.1234   -2.1310    0.0014 C   0  0  0  0  0  0  0  0  0  0  0  0
   -1.1921   -0.7411    0.0095 C   0  0  0  0  0  0  0  0  0  0  0  0
   -2.5046   -0.0507    0.0252 C   0  0  0  0  0  0  0  0  0  0  0  0
   -3.4906   -0.4028   -0.8860 C   0  0  0  0  0  0  0  0  0  0  0  0
   -4.7163    0.2811   -0.8291 C   0  0  0  0  0  0  0  0  0  0  0  0
   -5.7605   -0.0227   -1.7199 C   0  0  0  0  0  0  0  0  0  0  0  0
   -6.9383    0.6601   -1.6373 C   0  0  0  0  0  0  0  0  0  0  0  0
   -7.1185    1.6630   -0.6721 C   0  0  0  0  0  0  0  0  0  0  0  0
   -6.1223    1.9790    0.2049 C   0  0  0  0  0  0  0  0  0  0  0  0
   -4.8964    1.2942    0.1472 C   0  0  0  0  0  0  0  0  0  0  0  0
   -3.9083    1.5886    0.9991 N   0  0  0  0  0  0  0  0  0  0  0  0
   -2.7606    0.9593    0.9651 C   0  0  0  0  0  0  0  0  0  0  0  0
   -8.3015    2.3288   -0.6105 O   0  0  0  0  0  0  0  0  0  0  0  0
   -8.4260    3.3388    0.3926 C   0  0  0  0  0  0  0  0  0  0  0  0
   -7.9482    0.3660   -2.4985 O   0  0  0  0  0  0  0  0  0  0  0  0
   -7.7035   -0.6648   -3.4575 C   0  0  0  0  0  0  0  0  0  0  0  0
    1.8173    1.7287    0.8840 H   0  0  0  0  0  0  0  0  0  0  0  0
    1.8004    1.7383   -0.8958 H   0  0  0  0  0  0  0  0  0  0  0  0
    1.0905    3.0973    0.0083 H   0  0  0  0  0  0  0  0  0  0  0  0
    2.1451   -0.1704   -0.0298 H   0  0  0  0  0  0  0  0  0  0  0  0
    2.1151   -2.6280   -0.0325 H   0  0  0  0  0  0  0  0  0  0  0  0
   -2.0342   -2.7114    0.0073 H   0  0  0  0  0  0  0  0  0  0  0  0
   -3.3207   -1.1797   -1.6168 H   0  0  0  0  0  0  0  0  0  0  0  0
   -5.6309   -0.7931   -2.4656 H   0  0  0  0  0  0  0  0  0  0  0  0
   -6.2757    2.7531    0.9422 H   0  0  0  0  0  0  0  0  0  0  0  0
   -1.9914    1.2266    1.6745 H   0  0  0  0  0  0  0  0  0  0  0  0
   -8.2900    2.8917    1.3773 H   0  0  0  0  0  0  0  0  0  0  0  0
   -7.6669    4.1046    0.2333 H   0  0  0  0  0  0  0  0  0  0  0  0
   -9.4161    3.7906    0.3323 H   0  0  0  0  0  0  0  0  0  0  0  0
   -8.5878   -0.7987   -4.0806 H   0  0  0  0  0  0  0  0  0  0  0  0
   -6.8567   -0.3847   -4.0839 H   0  0  0  0  0  0  0  0  0  0  0  0
   -7.4795   -1.5973   -2.9394 H   0  0  0  0  0  0  0  0  0  0  0  0
    0.0438   -2.8273   -0.0135 N   0  3  0  0  0  0  0  0  0  0  0  0
    0.0650   -3.8538   -0.0192 H   0  0  0  0  0  0  0  0  0  0  0  0
  1  2  1  0  0  0  0
  1 22  1  0  0  0  0
  1 23  1  0  0  0  0
  1 24  1  0  0  0  0
  2  3  1  0  0  0  0
  3  7  2  0  0  0  0
  3  4  1  0  0  0  0
  4  5  2  0  0  0  0
  4 25  1  0  0  0  0
  5 26  1  0  0  0  0
  5 38  1  0  0  0  0
  6  7  1  0  0  0  0
  6 27  1  0  0  0  0
  6 38  2  0  0  0  0
  7  8  1  0  0  0  0
  8 17  2  0  0  0  0
  8  9  1  0  0  0  0
  9 10  2  0  0  0  0
  9 28  1  0  0  0  0
 10 15  1  0  0  0  0
 10 11  1  0  0  0  0
 11 12  2  0  0  0  0
 11 29  1  0  0  0  0
 12 13  1  0  0  0  0
 12 20  1  0  0  0  0
 13 14  2  0  0  0  0
 13 18  1  0  0  0  0
 14 15  1  0  0  0  0
 14 30  1  0  0  0  0
 15 16  2  0  0  0  0
 16 17  1  0  0  0  0
 17 31  1  0  0  0  0
 18 19  1  0  0  0  0
 19 32  1  0  0  0  0
 19 33  1  0  0  0  0
 19 34  1  0  0  0  0
 20 21  1  0  0  0  0
 21 35  1  0  0  0  0
 21 36  1  0  0  0  0
 21 37  1  0  0  0  0
 38 39  1  0  0  0  0
M  CHG  1  38   1
M  END
$$$$
ZINC03815790
  -OEChem-08230709403D

 44 46  0     0  0  0  0  0  0999 V2000
   10.0338    4.0863   -1.3234 C   0  0  0  0  0  0  0  0  0  0  0  0
   10.1473    5.9833    0.1770 C   0  0  0  0  0  0  0  0  0  0  0  0
    8.0818    4.7401   -0.0487 C   0  0  0  0  0  0  0  0  0  0  0  0
    7.4970    3.3262   -0.0506 C   0  0  0  0  0  0  0  0  0  0  0  0
    5.9692    3.4062   -0.0362 C   0  0  0  0  0  0  0  0  0  0  0  0
    5.4230    2.0857   -0.0380 O   0  0  0  0  0  0  0  0  0  0  0  0
    4.0676    1.9783   -0.0261 C   0  0  0  0  0  0  0  0  0  0  0  0
    3.2826    3.1280   -0.0125 C   0  0  0  0  0  0  0  0  0  0  0  0
    1.9079    3.0336    0.0001 C   0  0  0  0  0  0  0  0  0  0  0  0
    1.3000    1.7860   -0.0008 C   0  0  0  0  0  0  0  0  0  0  0  0
    2.0852    0.6211   -0.0145 C   0  0  0  0  0  0  0  0  0  0  0  0
    3.4784    0.7299   -0.0272 C   0  0  0  0  0  0  0  0  0  0  0  0
    1.2301   -0.4340   -0.0120 N   0  0  0  0  0  0  0  0  0  0  0  0
    0.0021   -0.0041    0.0020 C   0  0  0  0  0  0  0  0  0  0  0  0
   -0.0164    1.3581    0.0095 N   0  0  0  0  0  0  0  0  0  0  0  0
   -1.1555    2.1739    0.0196 C   0  0  0  0  0  0  0  0  0  0  0  0
   -1.2691    3.1986    0.9496 C   0  0  0  0  0  0  0  0  0  0  0  0
   -2.3904    4.0050    0.9530 C   0  0  0  0  0  0  0  0  0  0  0  0
   -3.4047    3.7851    0.0392 C   0  0  0  0  0  0  0  0  0  0  0  0
   -3.2972    2.7615   -0.8843 C   0  0  0  0  0  0  0  0  0  0  0  0
   -2.1756    1.9556   -0.8967 C   0  0  0  0  0  0  0  0  0  0  0  0
    9.7085    4.7089   -2.1568 H   0  0  0  0  0  0  0  0  0  0  0  0
   11.1227    4.0409   -1.3071 H   0  0  0  0  0  0  0  0  0  0  0  0
    9.6300    3.0808   -1.4418 H   0  0  0  0  0  0  0  0  0  0  0  0
    9.8260    6.3568    1.1493 H   0  0  0  0  0  0  0  0  0  0  0  0
   11.2338    5.8977    0.1615 H   0  0  0  0  0  0  0  0  0  0  0  0
    9.8261    6.6746   -0.6021 H   0  0  0  0  0  0  0  0  0  0  0  0
    7.7377    5.2768   -0.9327 H   0  0  0  0  0  0  0  0  0  0  0  0
    7.7540    5.2676    0.8471 H   0  0  0  0  0  0  0  0  0  0  0  0
    7.8411    2.7895    0.8334 H   0  0  0  0  0  0  0  0  0  0  0  0
    7.8248    2.7988   -0.9464 H   0  0  0  0  0  0  0  0  0  0  0  0
    5.6251    3.9430   -0.9203 H   0  0  0  0  0  0  0  0  0  0  0  0
    5.6414    3.9337    0.8596 H   0  0  0  0  0  0  0  0  0  0  0  0
    3.7539    4.0997   -0.0114 H   0  0  0  0  0  0  0  0  0  0  0  0
    1.3044    3.9292    0.0111 H   0  0  0  0  0  0  0  0  0  0  0  0
    4.0916   -0.1591   -0.0382 H   0  0  0  0  0  0  0  0  0  0  0  0
   -0.8745   -0.6349    0.0064 H   0  0  0  0  0  0  0  0  0  0  0  0
   -0.4794    3.3677    1.6667 H   0  0  0  0  0  0  0  0  0  0  0  0
   -2.4772    4.8053    1.6731 H   0  0  0  0  0  0  0  0  0  0  0  0
   -4.2824    4.4144    0.0465 H   0  0  0  0  0  0  0  0  0  0  0  0
   -4.0910    2.5922   -1.5968 H   0  0  0  0  0  0  0  0  0  0  0  0
   -2.0920    1.1567   -1.6187 H   0  0  0  0  0  0  0  0  0  0  0  0
    9.5568    4.6459   -0.0412 N   0  3  0  0  0  0  0  0  0  0  0  0
    9.8474    4.0244    0.7227 H   0  0  0  0  0  0  0  0  0  0  0  0
  1 22  1  0  0  0  0
  1 23  1  0  0  0  0
  1 24  1  0  0  0  0
  1 43  1  0  0  0  0
  2 25  1  0  0  0  0
  2 26  1  0  0  0  0
  2 27  1  0  0  0  0
  2 43  1  0  0  0  0
  3  4  1  0  0  0  0
  3 28  1  0  0  0  0
  3 29  1  0  0  0  0
  3 43  1  0  0  0  0
  4  5  1  0  0  0  0
  4 30  1  0  0  0  0
  4 31  1  0  0  0  0
  5  6  1  0  0  0  0
  5 32  1  0  0  0  0
  5 33  1  0  0  0  0
  6  7  1  0  0  0  0
  7 12  2  0  0  0  0
  7  8  1  0  0  0  0
  8  9  2  0  0  0  0
  8 34  1  0  0  0  0
  9 10  1  0  0  0  0
  9 35  1  0  0  0  0
 10 15  1  0  0  0  0
 10 11  2  0  0  0  0
 11 12  1  0  0  0  0
 11 13  1  0  0  0  0
 12 36  1  0  0  0  0
 13 14  2  0  0  0  0
 14 15  1  0  0  0  0
 14 37  1  0  0  0  0
 15 16  1  0  0  0  0
 16 21  2  0  0  0  0
 16 17  1  0  0  0  0
 17 18  2  0  0  0  0
 17 38  1  0  0  0  0
 18 19  1  0  0  0  0
 18 39  1  0  0  0  0
 19 20  2  0  0  0  0
 19 40  1  0  0  0  0
 20 21  1  0  0  0  0
 20 41  1  0  0  0  0
 21 42  1  0  0  0  0
 43 44  1  0  0  0  0
M  CHG  1  43   1
M  END
$$$$
ZINC03815790
  -OEChem-08230709403D

 45 47  0     0  0  0  0  0  0999 V2000
   10.0338    4.0863   -1.3234 C   0  0  0  0  0  0  0  0  0  0  0  0
   10.1473    5.9833    0.1770 C   0  0  0  0  0  0  0  0  0  0  0  0
    8.0818    4.7401   -0.0487 C   0  0  0  0  0  0  0  0  0  0  0  0
    7.4970    3.3262   -0.0506 C   0  0  0  0  0  0  0  0  0  0  0  0
    5.9692    3.4062   -0.0362 C   0  0  0  0  0  0  0  0  0  0  0  0
    5.4230    2.0857   -0.0380 O   0  0  0  0  0  0  0  0  0  0  0  0
    4.0676    1.9783   -0.0261 C   0  0  0  0  0  0  0  0  0  0  0  0
    3.2826    3.1280   -0.0125 C   0  0  0  0  0  0  0  0  0  0  0  0
    1.9079    3.0336    0.0001 C   0  0  0  0  0  0  0  0  0  0  0  0
    1.3000    1.7860   -0.0008 C   0  0  0  0  0  0  0  0  0  0  0  0
    2.0852    0.6211   -0.0145 C   0  0  0  0  0  0  0  0  0  0  0  0
    3.4784    0.7299   -0.0272 C   0  0  0  0  0  0  0  0  0  0  0  0
    0.0021   -0.0041    0.0020 C   0  0  0  0  0  0  0  0  0  0  0  0
   -0.0164    1.3581    0.0095 N   0  0  0  0  0  0  0  0  0  0  0  0
   -1.1555    2.1739    0.0196 C   0  0  0  0  0  0  0  0  0  0  0  0
   -1.2691    3.1986    0.9496 C   0  0  0  0  0  0  0  0  0  0  0  0
   -2.3904    4.0050    0.9530 C   0  0  0  0  0  0  0  0  0  0  0  0
   -3.4047    3.7851    0.0392 C   0  0  0  0  0  0  0  0  0  0  0  0
   -3.2972    2.7615   -0.8843 C   0  0  0  0  0  0  0  0  0  0  0  0
   -2.1756    1.9556   -0.8967 C   0  0  0  0  0  0  0  0  0  0  0  0
    9.7085    4.7089   -2.1568 H   0  0  0  0  0  0  0  0  0  0  0  0
   11.1227    4.0409   -1.3071 H   0  0  0  0  0  0  0  0  0  0  0  0
    9.6300    3.0808   -1.4418 H   0  0  0  0  0  0  0  0  0  0  0  0
    9.8260    6.3568    1.1493 H   0  0  0  0  0  0  0  0  0  0  0  0
   11.2338    5.8977    0.1615 H   0  0  0  0  0  0  0  0  0  0  0  0
    9.8261    6.6746   -0.6021 H   0  0  0  0  0  0  0  0  0  0  0  0
    7.7377    5.2768   -0.9327 H   0  0  0  0  0  0  0  0  0  0  0  0
    7.7540    5.2676    0.8471 H   0  0  0  0  0  0  0  0  0  0  0  0
    7.8411    2.7895    0.8334 H   0  0  0  0  0  0  0  0  0  0  0  0
    7.8248    2.7988   -0.9464 H   0  0  0  0  0  0  0  0  0  0  0  0
    5.6251    3.9430   -0.9203 H   0  0  0  0  0  0  0  0  0  0  0  0
    5.6414    3.9337    0.8596 H   0  0  0  0  0  0  0  0  0  0  0  0
    3.7539    4.0997   -0.0114 H   0  0  0  0  0  0  0  0  0  0  0  0
    1.3044    3.9292    0.0111 H   0  0  0  0  0  0  0  0  0  0  0  0
    4.0916   -0.1591   -0.0382 H   0  0  0  0  0  0  0  0  0  0  0  0
   -0.8745   -0.6349    0.0064 H   0  0  0  0  0  0  0  0  0  0  0  0
   -0.4794    3.3677    1.6667 H   0  0  0  0  0  0  0  0  0  0  0  0
   -2.4772    4.8053    1.6731 H   0  0  0  0  0  0  0  0  0  0  0  0
   -4.2824    4.4144    0.0465 H   0  0  0  0  0  0  0  0  0  0  0  0
   -4.0910    2.5922   -1.5968 H   0  0  0  0  0  0  0  0  0  0  0  0
   -2.0920    1.1567   -1.6187 H   0  0  0  0  0  0  0  0  0  0  0  0
    9.5568    4.6459   -0.0412 N   0  3  0  0  0  0  0  0  0  0  0  0
    9.8474    4.0244    0.7227 H   0  0  0  0  0  0  0  0  0  0  0  0
    1.2305   -0.4356   -0.0120 N   0  3  0  0  0  0  0  0  0  0  0  0
    1.5107   -1.4233   -0.0200 H   0  0  0  0  0  0  0  0  0  0  0  0
  1 21  1  0  0  0  0
  1 22  1  0  0  0  0
  1 23  1  0  0  0  0
  1 42  1  0  0  0  0
  2 24  1  0  0  0  0
  2 25  1  0  0  0  0
  2 26  1  0  0  0  0
  2 42  1  0  0  0  0
  3  4  1  0  0  0  0
  3 27  1  0  0  0  0
  3 28  1  0  0  0  0
  3 42  1  0  0  0  0
  4  5  1  0  0  0  0
  4 29  1  0  0  0  0
  4 30  1  0  0  0  0
  5  6  1  0  0  0  0
  5 31  1  0  0  0  0
  5 32  1  0  0  0  0
  6  7  1  0  0  0  0
  7 12  2  0  0  0  0
  7  8  1  0  0  0  0
  8  9  2  0  0  0  0
  8 33  1  0  0  0  0
  9 10  1  0  0  0  0
  9 34  1  0  0  0  0
 10 14  1  0  0  0  0
 10 11  2  0  0  0  0
 11 12  1  0  0  0  0
 11 44  1  0  0  0  0
 12 35  1  0  0  0  0
 13 14  1  0  0  0  0
 13 36  1  0  0  0  0
 13 44  2  0  0  0  0
 14 15  1  0  0  0  0
 15 20  2  0  0  0  0
 15 16  1  0  0  0  0
 16 17  2  0  0  0  0
 16 37  1  0  0  0  0
 17 18  1  0  0  0  0
 17 38  1  0  0  0  0
 18 19  2  0  0  0  0
 18 39  1  0  0  0  0
 19 20  1  0  0  0  0
 19 40  1  0  0  0  0
 20 41  1  0  0  0  0
 42 43  1  0  0  0  0
 44 45  1  0  0  0  0
M  CHG  2  42   1  44   1
M  END
$$$$
ZINC03815791
  -OEChem-08230709403D

 47 49  0     0  0  0  0  0  0999 V2000
   11.6225    5.9867    0.1634 C   0  0  0  0  0  0  0  0  0  0  0  0
    9.8462    6.7234   -1.3079 C   0  0  0  0  0  0  0  0  0  0  0  0
    9.6096    4.6601   -0.0631 C   0  0  0  0  0  0  0  0  0  0  0  0
    8.0818    4.7401   -0.0487 C   0  0  0  0  0  0  0  0  0  0  0  0
    7.4970    3.3262   -0.0506 C   0  0  0  0  0  0  0  0  0  0  0  0
    5.9692    3.4062   -0.0362 C   0  0  0  0  0  0  0  0  0  0  0  0
    5.4230    2.0857   -0.0380 O   0  0  0  0  0  0  0  0  0  0  0  0
    4.0676    1.9783   -0.0261 C   0  0  0  0  0  0  0  0  0  0  0  0
    3.2826    3.1280   -0.0125 C   0  0  0  0  0  0  0  0  0  0  0  0
    1.9079    3.0336    0.0001 C   0  0  0  0  0  0  0  0  0  0  0  0
    1.3000    1.7860   -0.0008 C   0  0  0  0  0  0  0  0  0  0  0  0
    2.0852    0.6211   -0.0145 C   0  0  0  0  0  0  0  0  0  0  0  0
    3.4784    0.7299   -0.0272 C   0  0  0  0  0  0  0  0  0  0  0  0
    1.2301   -0.4340   -0.0120 N   0  0  0  0  0  0  0  0  0  0  0  0
    0.0021   -0.0041    0.0020 C   0  0  0  0  0  0  0  0  0  0  0  0
   -0.0164    1.3581    0.0095 N   0  0  0  0  0  0  0  0  0  0  0  0
   -1.1555    2.1739    0.0196 C   0  0  0  0  0  0  0  0  0  0  0  0
   -1.2691    3.1986    0.9496 C   0  0  0  0  0  0  0  0  0  0  0  0
   -2.3904    4.0050    0.9530 C   0  0  0  0  0  0  0  0  0  0  0  0
   -3.4047    3.7851    0.0392 C   0  0  0  0  0  0  0  0  0  0  0  0
   -3.2972    2.7615   -0.8843 C   0  0  0  0  0  0  0  0  0  0  0  0
   -2.1756    1.9556   -0.8967 C   0  0  0  0  0  0  0  0  0  0  0  0
   12.1007    5.4118   -0.6296 H   0  0  0  0  0  0  0  0  0  0  0  0
   12.0124    7.0045    0.1601 H   0  0  0  0  0  0  0  0  0  0  0  0
   11.8312    5.5208    1.1265 H   0  0  0  0  0  0  0  0  0  0  0  0
    8.7637    6.7930   -1.4146 H   0  0  0  0  0  0  0  0  0  0  0  0
   10.2738    7.7256   -1.2801 H   0  0  0  0  0  0  0  0  0  0  0  0
   10.2602    6.1751   -2.1542 H   0  0  0  0  0  0  0  0  0  0  0  0
    9.9537    4.1234    0.8210 H   0  0  0  0  0  0  0  0  0  0  0  0
    9.9374    4.1326   -0.9589 H   0  0  0  0  0  0  0  0  0  0  0  0
    7.7377    5.2768   -0.9327 H   0  0  0  0  0  0  0  0  0  0  0  0
    7.7540    5.2676    0.8471 H   0  0  0  0  0  0  0  0  0  0  0  0
    7.8411    2.7895    0.8334 H   0  0  0  0  0  0  0  0  0  0  0  0
    7.8248    2.7988   -0.9464 H   0  0  0  0  0  0  0  0  0  0  0  0
    5.6251    3.9430   -0.9203 H   0  0  0  0  0  0  0  0  0  0  0  0
    5.6414    3.9337    0.8596 H   0  0  0  0  0  0  0  0  0  0  0  0
    3.7539    4.0997   -0.0114 H   0  0  0  0  0  0  0  0  0  0  0  0
    1.3044    3.9292    0.0111 H   0  0  0  0  0  0  0  0  0  0  0  0
    4.0916   -0.1591   -0.0382 H   0  0  0  0  0  0  0  0  0  0  0  0
   -0.8745   -0.6349    0.0064 H   0  0  0  0  0  0  0  0  0  0  0  0
   -0.4794    3.3677    1.6667 H   0  0  0  0  0  0  0  0  0  0  0  0
   -2.4772    4.8053    1.6731 H   0  0  0  0  0  0  0  0  0  0  0  0
   -4.2824    4.4144    0.0465 H   0  0  0  0  0  0  0  0  0  0  0  0
   -4.0910    2.5922   -1.5968 H   0  0  0  0  0  0  0  0  0  0  0  0
   -2.0920    1.1567   -1.6187 H   0  0  0  0  0  0  0  0  0  0  0  0
   10.1591    6.0321   -0.0395 N   0  3  0  0  0  0  0  0  0  0  0  0
    9.7307    6.5496    0.7369 H   0  0  0  0  0  0  0  0  0  0  0  0
  1 23  1  0  0  0  0
  1 24  1  0  0  0  0
  1 25  1  0  0  0  0
  1 46  1  0  0  0  0
  2 26  1  0  0  0  0
  2 27  1  0  0  0  0
  2 28  1  0  0  0  0
  2 46  1  0  0  0  0
  3  4  1  0  0  0  0
  3 29  1  0  0  0  0
  3 30  1  0  0  0  0
  3 46  1  0  0  0  0
  4  5  1  0  0  0  0
  4 31  1  0  0  0  0
  4 32  1  0  0  0  0
  5  6  1  0  0  0  0
  5 33  1  0  0  0  0
  5 34  1  0  0  0  0
  6  7  1  0  0  0  0
  6 35  1  0  0  0  0
  6 36  1  0  0  0  0
  7  8  1  0  0  0  0
  8 13  2  0  0  0  0
  8  9  1  0  0  0  0
  9 10  2  0  0  0  0
  9 37  1  0  0  0  0
 10 11  1  0  0  0  0
 10 38  1  0  0  0  0
 11 16  1  0  0  0  0
 11 12  2  0  0  0  0
 12 13  1  0  0  0  0
 12 14  1  0  0  0  0
 13 39  1  0  0  0  0
 14 15  2  0  0  0  0
 15 16  1  0  0  0  0
 15 40  1  0  0  0  0
 16 17  1  0  0  0  0
 17 22  2  0  0  0  0
 17 18  1  0  0  0  0
 18 19  2  0  0  0  0
 18 41  1  0  0  0  0
 19 20  1  0  0  0  0
 19 42  1  0  0  0  0
 20 21  2  0  0  0  0
 20 43  1  0  0  0  0
 21 22  1  0  0  0  0
 21 44  1  0  0  0  0
 22 45  1  0  0  0  0
 46 47  1  0  0  0  0
M  CHG  1  46   1
M  END
$$$$
ZINC03815791
  -OEChem-08230709403D

 48 50  0     0  0  0  0  0  0999 V2000
   11.6225    5.9867    0.1634 C   0  0  0  0  0  0  0  0  0  0  0  0
    9.8462    6.7234   -1.3079 C   0  0  0  0  0  0  0  0  0  0  0  0
    9.6096    4.6601   -0.0631 C   0  0  0  0  0  0  0  0  0  0  0  0
    8.0818    4.7401   -0.0487 C   0  0  0  0  0  0  0  0  0  0  0  0
    7.4970    3.3262   -0.0506 C   0  0  0  0  0  0  0  0  0  0  0  0
    5.9692    3.4062   -0.0362 C   0  0  0  0  0  0  0  0  0  0  0  0
    5.4230    2.0857   -0.0380 O   0  0  0  0  0  0  0  0  0  0  0  0
    4.0676    1.9783   -0.0261 C   0  0  0  0  0  0  0  0  0  0  0  0
    3.2826    3.1280   -0.0125 C   0  0  0  0  0  0  0  0  0  0  0  0
    1.9079    3.0336    0.0001 C   0  0  0  0  0  0  0  0  0  0  0  0
    1.3000    1.7860   -0.0008 C   0  0  0  0  0  0  0  0  0  0  0  0
    2.0852    0.6211   -0.0145 C   0  0  0  0  0  0  0  0  0  0  0  0
    3.4784    0.7299   -0.0272 C   0  0  0  0  0  0  0  0  0  0  0  0
    0.0021   -0.0041    0.0020 C   0  0  0  0  0  0  0  0  0  0  0  0
   -0.0164    1.3581    0.0095 N   0  0  0  0  0  0  0  0  0  0  0  0
   -1.1555    2.1739    0.0196 C   0  0  0  0  0  0  0  0  0  0  0  0
   -1.2691    3.1986    0.9496 C   0  0  0  0  0  0  0  0  0  0  0  0
   -2.3904    4.0050    0.9530 C   0  0  0  0  0  0  0  0  0  0  0  0
   -3.4047    3.7851    0.0392 C   0  0  0  0  0  0  0  0  0  0  0  0
   -3.2972    2.7615   -0.8843 C   0  0  0  0  0  0  0  0  0  0  0  0
   -2.1756    1.9556   -0.8967 C   0  0  0  0  0  0  0  0  0  0  0  0
   12.1007    5.4118   -0.6296 H   0  0  0  0  0  0  0  0  0  0  0  0
   12.0124    7.0045    0.1601 H   0  0  0  0  0  0  0  0  0  0  0  0
   11.8312    5.5208    1.1265 H   0  0  0  0  0  0  0  0  0  0  0  0
    8.7637    6.7930   -1.4146 H   0  0  0  0  0  0  0  0  0  0  0  0
   10.2738    7.7256   -1.2801 H   0  0  0  0  0  0  0  0  0  0  0  0
   10.2602    6.1751   -2.1542 H   0  0  0  0  0  0  0  0  0  0  0  0
    9.9537    4.1234    0.8210 H   0  0  0  0  0  0  0  0  0  0  0  0
    9.9374    4.1326   -0.9589 H   0  0  0  0  0  0  0  0  0  0  0  0
    7.7377    5.2768   -0.9327 H   0  0  0  0  0  0  0  0  0  0  0  0
    7.7540    5.2676    0.8471 H   0  0  0  0  0  0  0  0  0  0  0  0
    7.8411    2.7895    0.8334 H   0  0  0  0  0  0  0  0  0  0  0  0
    7.8248    2.7988   -0.9464 H   0  0  0  0  0  0  0  0  0  0  0  0
    5.6251    3.9430   -0.9203 H   0  0  0  0  0  0  0  0  0  0  0  0
    5.6414    3.9337    0.8596 H   0  0  0  0  0  0  0  0  0  0  0  0
    3.7539    4.0997   -0.0114 H   0  0  0  0  0  0  0  0  0  0  0  0
    1.3044    3.9292    0.0111 H   0  0  0  0  0  0  0  0  0  0  0  0
    4.0916   -0.1591   -0.0382 H   0  0  0  0  0  0  0  0  0  0  0  0
   -0.8745   -0.6349    0.0064 H   0  0  0  0  0  0  0  0  0  0  0  0
   -0.4794    3.3677    1.6667 H   0  0  0  0  0  0  0  0  0  0  0  0
   -2.4772    4.8053    1.6731 H   0  0  0  0  0  0  0  0  0  0  0  0
   -4.2824    4.4144    0.0465 H   0  0  0  0  0  0  0  0  0  0  0  0
   -4.0910    2.5922   -1.5968 H   0  0  0  0  0  0  0  0  0  0  0  0
   -2.0920    1.1567   -1.6187 H   0  0  0  0  0  0  0  0  0  0  0  0
   10.1591    6.0321   -0.0395 N   0  3  0  0  0  0  0  0  0  0  0  0
    9.7307    6.5496    0.7369 H   0  0  0  0  0  0  0  0  0  0  0  0
    1.2305   -0.4356   -0.0120 N   0  3  0  0  0  0  0  0  0  0  0  0
    1.5107   -1.4233   -0.0200 H   0  0  0  0  0  0  0  0  0  0  0  0
  1 22  1  0  0  0  0
  1 23  1  0  0  0  0
  1 24  1  0  0  0  0
  1 45  1  0  0  0  0
  2 25  1  0  0  0  0
  2 26  1  0  0  0  0
  2 27  1  0  0  0  0
  2 45  1  0  0  0  0
  3  4  1  0  0  0  0
  3 28  1  0  0  0  0
  3 29  1  0  0  0  0
  3 45  1  0  0  0  0
  4  5  1  0  0  0  0
  4 30  1  0  0  0  0
  4 31  1  0  0  0  0
  5  6  1  0  0  0  0
  5 32  1  0  0  0  0
  5 33  1  0  0  0  0
  6  7  1  0  0  0  0
  6 34  1  0  0  0  0
  6 35  1  0  0  0  0
  7  8  1  0  0  0  0
  8 13  2  0  0  0  0
  8  9  1  0  0  0  0
  9 10  2  0  0  0  0
  9 36  1  0  0  0  0
 10 11  1  0  0  0  0
 10 37  1  0  0  0  0
 11 15  1  0  0  0  0
 11 12  2  0  0  0  0
 12 13  1  0  0  0  0
 12 47  1  0  0  0  0
 13 38  1  0  0  0  0
 14 15  1  0  0  0  0
 14 39  1  0  0  0  0
 14 47  2  0  0  0  0
 15 16  1  0  0  0  0
 16 21  2  0  0  0  0
 16 17  1  0  0  0  0
 17 18  2  0  0  0  0
 17 40  1  0  0  0  0
 18 19  1  0  0  0  0
 18 41  1  0  0  0  0
 19 20  2  0  0  0  0
 19 42  1  0  0  0  0
 20 21  1  0  0  0  0
 20 43  1  0  0  0  0
 21 44  1  0  0  0  0
 45 46  1  0  0  0  0
 47 48  1  0  0  0  0
M  CHG  2  45   1  47   1
M  END
$$$$
ZINC03815792
  -OEChem-08230709403D

 32 34  0     0  0  0  0  0  0999 V2000
    7.4970    3.3262   -0.0516 C   0  0  0  0  0  0  0  0  0  0  0  0
    5.9692    3.4062   -0.0366 C   0  0  0  0  0  0  0  0  0  0  0  0
    5.4230    2.0857   -0.0385 O   0  0  0  0  0  0  0  0  0  0  0  0
    4.0676    1.9783   -0.0261 C   0  0  0  0  0  0  0  0  0  0  0  0
    3.2826    3.1280   -0.0129 C   0  0  0  0  0  0  0  0  0  0  0  0
    1.9079    3.0336   -0.0003 C   0  0  0  0  0  0  0  0  0  0  0  0
    1.3000    1.7860   -0.0008 C   0  0  0  0  0  0  0  0  0  0  0  0
    2.0852    0.6211   -0.0145 C   0  0  0  0  0  0  0  0  0  0  0  0
    3.4784    0.7299   -0.0272 C   0  0  0  0  0  0  0  0  0  0  0  0
    1.2301   -0.4340   -0.0120 N   0  0  0  0  0  0  0  0  0  0  0  0
    0.0021   -0.0041    0.0020 C   0  0  0  0  0  0  0  0  0  0  0  0
   -0.0164    1.3581    0.0095 N   0  0  0  0  0  0  0  0  0  0  0  0
   -1.1555    2.1739    0.0196 C   0  0  0  0  0  0  0  0  0  0  0  0
   -1.2691    3.1986    0.9496 C   0  0  0  0  0  0  0  0  0  0  0  0
   -2.3902    4.0053    0.9527 C   0  0  0  0  0  0  0  0  0  0  0  0
   -3.4047    3.7851    0.0392 C   0  0  0  0  0  0  0  0  0  0  0  0
   -3.2972    2.7615   -0.8843 C   0  0  0  0  0  0  0  0  0  0  0  0
   -2.1756    1.9556   -0.8967 C   0  0  0  0  0  0  0  0  0  0  0  0
    7.9136    4.3335   -0.0502 H   0  0  0  0  0  0  0  0  0  0  0  0
    7.8414    2.7893    0.8323 H   0  0  0  0  0  0  0  0  0  0  0  0
    7.8245    2.7989   -0.9476 H   0  0  0  0  0  0  0  0  0  0  0  0
    5.6248    3.9431   -0.9205 H   0  0  0  0  0  0  0  0  0  0  0  0
    5.6417    3.9336    0.8594 H   0  0  0  0  0  0  0  0  0  0  0  0
    3.7539    4.0997   -0.0122 H   0  0  0  0  0  0  0  0  0  0  0  0
    1.3044    3.9292    0.0102 H   0  0  0  0  0  0  0  0  0  0  0  0
    4.0916   -0.1591   -0.0382 H   0  0  0  0  0  0  0  0  0  0  0  0
   -0.8745   -0.6349    0.0067 H   0  0  0  0  0  0  0  0  0  0  0  0
   -0.4794    3.3677    1.6667 H   0  0  0  0  0  0  0  0  0  0  0  0
   -2.4768    4.8058    1.6725 H   0  0  0  0  0  0  0  0  0  0  0  0
   -4.2825    4.4142    0.0467 H   0  0  0  0  0  0  0  0  0  0  0  0
   -4.0910    2.5922   -1.5968 H   0  0  0  0  0  0  0  0  0  0  0  0
   -2.0920    1.1567   -1.6187 H   0  0  0  0  0  0  0  0  0  0  0  0
  1  2  1  0  0  0  0
  1 19  1  0  0  0  0
  1 20  1  0  0  0  0
  1 21  1  0  0  0  0
  2  3  1  0  0  0  0
  2 22  1  0  0  0  0
  2 23  1  0  0  0  0
  3  4  1  0  0  0  0
  4  9  2  0  0  0  0
  4  5  1  0  0  0  0
  5  6  2  0  0  0  0
  5 24  1  0  0  0  0
  6  7  1  0  0  0  0
  6 25  1  0  0  0  0
  7 12  1  0  0  0  0
  7  8  2  0  0  0  0
  8  9  1  0  0  0  0
  8 10  1  0  0  0  0
  9 26  1  0  0  0  0
 10 11  2  0  0  0  0
 11 12  1  0  0  0  0
 11 27  1  0  0  0  0
 12 13  1  0  0  0  0
 13 18  2  0  0  0  0
 13 14  1  0  0  0  0
 14 15  2  0  0  0  0
 14 28  1  0  0  0  0
 15 16  1  0  0  0  0
 15 29  1  0  0  0  0
 16 17  2  0  0  0  0
 16 30  1  0  0  0  0
 17 18  1  0  0  0  0
 17 31  1  0  0  0  0
 18 32  1  0  0  0  0
M  END
$$$$
ZINC03815792
  -OEChem-08230709403D

 33 35  0     0  0  0  0  0  0999 V2000
    7.4970    3.3262   -0.0516 C   0  0  0  0  0  0  0  0  0  0  0  0
    5.9692    3.4062   -0.0366 C   0  0  0  0  0  0  0  0  0  0  0  0
    5.4230    2.0857   -0.0385 O   0  0  0  0  0  0  0  0  0  0  0  0
    4.0676    1.9783   -0.0261 C   0  0  0  0  0  0  0  0  0  0  0  0
    3.2826    3.1280   -0.0129 C   0  0  0  0  0  0  0  0  0  0  0  0
    1.9079    3.0336   -0.0003 C   0  0  0  0  0  0  0  0  0  0  0  0
    1.3000    1.7860   -0.0008 C   0  0  0  0  0  0  0  0  0  0  0  0
    2.0852    0.6211   -0.0145 C   0  0  0  0  0  0  0  0  0  0  0  0
    3.4784    0.7299   -0.0272 C   0  0  0  0  0  0  0  0  0  0  0  0
    0.0021   -0.0041    0.0020 C   0  0  0  0  0  0  0  0  0  0  0  0
   -0.0164    1.3581    0.0095 N   0  0  0  0  0  0  0  0  0  0  0  0
   -1.1555    2.1739    0.0196 C   0  0  0  0  0  0  0  0  0  0  0  0
   -1.2691    3.1986    0.9496 C   0  0  0  0  0  0  0  0  0  0  0  0
   -2.3902    4.0053    0.9527 C   0  0  0  0  0  0  0  0  0  0  0  0
   -3.4047    3.7851    0.0392 C   0  0  0  0  0  0  0  0  0  0  0  0
   -3.2972    2.7615   -0.8843 C   0  0  0  0  0  0  0  0  0  0  0  0
   -2.1756    1.9556   -0.8967 C   0  0  0  0  0  0  0  0  0  0  0  0
    7.9136    4.3335   -0.0502 H   0  0  0  0  0  0  0  0  0  0  0  0
    7.8414    2.7893    0.8323 H   0  0  0  0  0  0  0  0  0  0  0  0
    7.8245    2.7989   -0.9476 H   0  0  0  0  0  0  0  0  0  0  0  0
    5.6248    3.9431   -0.9205 H   0  0  0  0  0  0  0  0  0  0  0  0
    5.6417    3.9336    0.8594 H   0  0  0  0  0  0  0  0  0  0  0  0
    3.7539    4.0997   -0.0122 H   0  0  0  0  0  0  0  0  0  0  0  0
    1.3044    3.9292    0.0102 H   0  0  0  0  0  0  0  0  0  0  0  0
    4.0916   -0.1591   -0.0382 H   0  0  0  0  0  0  0  0  0  0  0  0
   -0.8745   -0.6349    0.0067 H   0  0  0  0  0  0  0  0  0  0  0  0
   -0.4794    3.3677    1.6667 H   0  0  0  0  0  0  0  0  0  0  0  0
   -2.4768    4.8058    1.6725 H   0  0  0  0  0  0  0  0  0  0  0  0
   -4.2825    4.4142    0.0467 H   0  0  0  0  0  0  0  0  0  0  0  0
   -4.0910    2.5922   -1.5968 H   0  0  0  0  0  0  0  0  0  0  0  0
   -2.0920    1.1567   -1.6187 H   0  0  0  0  0  0  0  0  0  0  0  0
    1.2305   -0.4356   -0.0120 N   0  3  0  0  0  0  0  0  0  0  0  0
    1.5107   -1.4233   -0.0200 H   0  0  0  0  0  0  0  0  0  0  0  0
  1  2  1  0  0  0  0
  1 18  1  0  0  0  0
  1 19  1  0  0  0  0
  1 20  1  0  0  0  0
  2  3  1  0  0  0  0
  2 21  1  0  0  0  0
  2 22  1  0  0  0  0
  3  4  1  0  0  0  0
  4  9  2  0  0  0  0
  4  5  1  0  0  0  0
  5  6  2  0  0  0  0
  5 23  1  0  0  0  0
  6  7  1  0  0  0  0
  6 24  1  0  0  0  0
  7 11  1  0  0  0  0
  7  8  2  0  0  0  0
  8  9  1  0  0  0  0
  8 32  1  0  0  0  0
  9 25  1  0  0  0  0
 10 11  1  0  0  0  0
 10 26  1  0  0  0  0
 10 32  2  0  0  0  0
 11 12  1  0  0  0  0
 12 17  2  0  0  0  0
 12 13  1  0  0  0  0
 13 14  2  0  0  0  0
 13 27  1  0  0  0  0
 14 15  1  0  0  0  0
 14 28  1  0  0  0  0
 15 16  2  0  0  0  0
 15 29  1  0  0  0  0
 16 17  1  0  0  0  0
 16 30  1  0  0  0  0
 17 31  1  0  0  0  0
 32 33  1  0  0  0  0
M  CHG  1  32   1
M  END
$$$$
ZINC03815793
  -OEChem-08230709403D

 35 37  0     0  0  0  0  0  0999 V2000
    8.0818    4.7401   -0.0487 C   0  0  0  0  0  0  0  0  0  0  0  0
    7.4970    3.3262   -0.0506 C   0  0  0  0  0  0  0  0  0  0  0  0
    5.9692    3.4062   -0.0362 C   0  0  0  0  0  0  0  0  0  0  0  0
    5.4230    2.0857   -0.0380 O   0  0  0  0  0  0  0  0  0  0  0  0
    4.0676    1.9783   -0.0261 C   0  0  0  0  0  0  0  0  0  0  0  0
    3.2826    3.1280   -0.0125 C   0  0  0  0  0  0  0  0  0  0  0  0
    1.9079    3.0336    0.0001 C   0  0  0  0  0  0  0  0  0  0  0  0
    1.3000    1.7860   -0.0008 C   0  0  0  0  0  0  0  0  0  0  0  0
    2.0852    0.6211   -0.0145 C   0  0  0  0  0  0  0  0  0  0  0  0
    3.4784    0.7299   -0.0272 C   0  0  0  0  0  0  0  0  0  0  0  0
    1.2301   -0.4340   -0.0120 N   0  0  0  0  0  0  0  0  0  0  0  0
    0.0021   -0.0041    0.0020 C   0  0  0  0  0  0  0  0  0  0  0  0
   -0.0164    1.3581    0.0095 N   0  0  0  0  0  0  0  0  0  0  0  0
   -1.1555    2.1739    0.0196 C   0  0  0  0  0  0  0  0  0  0  0  0
   -1.2691    3.1986    0.9496 C   0  0  0  0  0  0  0  0  0  0  0  0
   -2.3904    4.0050    0.9530 C   0  0  0  0  0  0  0  0  0  0  0  0
   -3.4047    3.7851    0.0392 C   0  0  0  0  0  0  0  0  0  0  0  0
   -3.2972    2.7615   -0.8843 C   0  0  0  0  0  0  0  0  0  0  0  0
   -2.1756    1.9556   -0.8967 C   0  0  0  0  0  0  0  0  0  0  0  0
    9.1702    4.6831   -0.0590 H   0  0  0  0  0  0  0  0  0  0  0  0
    7.7377    5.2768   -0.9327 H   0  0  0  0  0  0  0  0  0  0  0  0
    7.7540    5.2676    0.8471 H   0  0  0  0  0  0  0  0  0  0  0  0
    7.8411    2.7895    0.8334 H   0  0  0  0  0  0  0  0  0  0  0  0
    7.8248    2.7988   -0.9464 H   0  0  0  0  0  0  0  0  0  0  0  0
    5.6251    3.9430   -0.9203 H   0  0  0  0  0  0  0  0  0  0  0  0
    5.6414    3.9337    0.8596 H   0  0  0  0  0  0  0  0  0  0  0  0
    3.7539    4.0997   -0.0114 H   0  0  0  0  0  0  0  0  0  0  0  0
    1.3044    3.9292    0.0111 H   0  0  0  0  0  0  0  0  0  0  0  0
    4.0916   -0.1591   -0.0382 H   0  0  0  0  0  0  0  0  0  0  0  0
   -0.8745   -0.6349    0.0064 H   0  0  0  0  0  0  0  0  0  0  0  0
   -0.4794    3.3677    1.6667 H   0  0  0  0  0  0  0  0  0  0  0  0
   -2.4772    4.8053    1.6731 H   0  0  0  0  0  0  0  0  0  0  0  0
   -4.2824    4.4144    0.0465 H   0  0  0  0  0  0  0  0  0  0  0  0
   -4.0910    2.5922   -1.5968 H   0  0  0  0  0  0  0  0  0  0  0  0
   -2.0920    1.1567   -1.6187 H   0  0  0  0  0  0  0  0  0  0  0  0
  1  2  1  0  0  0  0
  1 20  1  0  0  0  0
  1 21  1  0  0  0  0
  1 22  1  0  0  0  0
  2  3  1  0  0  0  0
  2 23  1  0  0  0  0
  2 24  1  0  0  0  0
  3  4  1  0  0  0  0
  3 25  1  0  0  0  0
  3 26  1  0  0  0  0
  4  5  1  0  0  0  0
  5 10  2  0  0  0  0
  5  6  1  0  0  0  0
  6  7  2  0  0  0  0
  6 27  1  0  0  0  0
  7  8  1  0  0  0  0
  7 28  1  0  0  0  0
  8 13  1  0  0  0  0
  8  9  2  0  0  0  0
  9 10  1  0  0  0  0
  9 11  1  0  0  0  0
 10 29  1  0  0  0  0
 11 12  2  0  0  0  0
 12 13  1  0  0  0  0
 12 30  1  0  0  0  0
 13 14  1  0  0  0  0
 14 19  2  0  0  0  0
 14 15  1  0  0  0  0
 15 16  2  0  0  0  0
 15 31  1  0  0  0  0
 16 17  1  0  0  0  0
 16 32  1  0  0  0  0
 17 18  2  0  0  0  0
 17 33  1  0  0  0  0
 18 19  1  0  0  0  0
 18 34  1  0  0  0  0
 19 35  1  0  0  0  0
M  END
$$$$
ZINC03815793
  -OEChem-08230709403D

 36 38  0     0  0  0  0  0  0999 V2000
    8.0818    4.7401   -0.0487 C   0  0  0  0  0  0  0  0  0  0  0  0
    7.4970    3.3262   -0.0506 C   0  0  0  0  0  0  0  0  0  0  0  0
    5.9692    3.4062   -0.0362 C   0  0  0  0  0  0  0  0  0  0  0  0
    5.4230    2.0857   -0.0380 O   0  0  0  0  0  0  0  0  0  0  0  0
    4.0676    1.9783   -0.0261 C   0  0  0  0  0  0  0  0  0  0  0  0
    3.2826    3.1280   -0.0125 C   0  0  0  0  0  0  0  0  0  0  0  0
    1.9079    3.0336    0.0001 C   0  0  0  0  0  0  0  0  0  0  0  0
    1.3000    1.7860   -0.0008 C   0  0  0  0  0  0  0  0  0  0  0  0
    2.0852    0.6211   -0.0145 C   0  0  0  0  0  0  0  0  0  0  0  0
    3.4784    0.7299   -0.0272 C   0  0  0  0  0  0  0  0  0  0  0  0
    0.0021   -0.0041    0.0020 C   0  0  0  0  0  0  0  0  0  0  0  0
   -0.0164    1.3581    0.0095 N   0  0  0  0  0  0  0  0  0  0  0  0
   -1.1555    2.1739    0.0196 C   0  0  0  0  0  0  0  0  0  0  0  0
   -1.2691    3.1986    0.9496 C   0  0  0  0  0  0  0  0  0  0  0  0
   -2.3904    4.0050    0.9530 C   0  0  0  0  0  0  0  0  0  0  0  0
   -3.4047    3.7851    0.0392 C   0  0  0  0  0  0  0  0  0  0  0  0
   -3.2972    2.7615   -0.8843 C   0  0  0  0  0  0  0  0  0  0  0  0
   -2.1756    1.9556   -0.8967 C   0  0  0  0  0  0  0  0  0  0  0  0
    9.1702    4.6831   -0.0590 H   0  0  0  0  0  0  0  0  0  0  0  0
    7.7377    5.2768   -0.9327 H   0  0  0  0  0  0  0  0  0  0  0  0
    7.7540    5.2676    0.8471 H   0  0  0  0  0  0  0  0  0  0  0  0
    7.8411    2.7895    0.8334 H   0  0  0  0  0  0  0  0  0  0  0  0
    7.8248    2.7988   -0.9464 H   0  0  0  0  0  0  0  0  0  0  0  0
    5.6251    3.9430   -0.9203 H   0  0  0  0  0  0  0  0  0  0  0  0
    5.6414    3.9337    0.8596 H   0  0  0  0  0  0  0  0  0  0  0  0
    3.7539    4.0997   -0.0114 H   0  0  0  0  0  0  0  0  0  0  0  0
    1.3044    3.9292    0.0111 H   0  0  0  0  0  0  0  0  0  0  0  0
    4.0916   -0.1591   -0.0382 H   0  0  0  0  0  0  0  0  0  0  0  0
   -0.8745   -0.6349    0.0064 H   0  0  0  0  0  0  0  0  0  0  0  0
   -0.4794    3.3677    1.6667 H   0  0  0  0  0  0  0  0  0  0  0  0
   -2.4772    4.8053    1.6731 H   0  0  0  0  0  0  0  0  0  0  0  0
   -4.2824    4.4144    0.0465 H   0  0  0  0  0  0  0  0  0  0  0  0
   -4.0910    2.5922   -1.5968 H   0  0  0  0  0  0  0  0  0  0  0  0
   -2.0920    1.1567   -1.6187 H   0  0  0  0  0  0  0  0  0  0  0  0
    1.2305   -0.4356   -0.0120 N   0  3  0  0  0  0  0  0  0  0  0  0
    1.5107   -1.4233   -0.0200 H   0  0  0  0  0  0  0  0  0  0  0  0
  1  2  1  0  0  0  0
  1 19  1  0  0  0  0
  1 20  1  0  0  0  0
  1 21  1  0  0  0  0
  2  3  1  0  0  0  0
  2 22  1  0  0  0  0
  2 23  1  0  0  0  0
  3  4  1  0  0  0  0
  3 24  1  0  0  0  0
  3 25  1  0  0  0  0
  4  5  1  0  0  0  0
  5 10  2  0  0  0  0
  5  6  1  0  0  0  0
  6  7  2  0  0  0  0
  6 26  1  0  0  0  0
  7  8  1  0  0  0  0
  7 27  1  0  0  0  0
  8 12  1  0  0  0  0
  8  9  2  0  0  0  0
  9 10  1  0  0  0  0
  9 35  1  0  0  0  0
 10 28  1  0  0  0  0
 11 12  1  0  0  0  0
 11 29  1  0  0  0  0
 11 35  2  0  0  0  0
 12 13  1  0  0  0  0
 13 18  2  0  0  0  0
 13 14  1  0  0  0  0
 14 15  2  0  0  0  0
 14 30  1  0  0  0  0
 15 16  1  0  0  0  0
 15 31  1  0  0  0  0
 16 17  2  0  0  0  0
 16 32  1  0  0  0  0
 17 18  1  0  0  0  0
 17 33  1  0  0  0  0
 18 34  1  0  0  0  0
 35 36  1  0  0  0  0
M  CHG  1  35   1
M  END
$$$$
ZINC03815794
  -OEChem-08230709403D

 31 33  0     0  0  0  0  0  0999 V2000
    6.0404   -1.8896   -0.0662 C   0  0  0  0  0  0  0  0  0  0  0  0
    5.4589   -0.5843   -0.0537 O   0  0  0  0  0  0  0  0  0  0  0  0
    4.1011   -0.5135   -0.0399 C   0  0  0  0  0  0  0  0  0  0  0  0
    3.3473   -1.6841   -0.0389 C   0  0  0  0  0  0  0  0  0  0  0  0
    1.9706   -1.6269   -0.0259 C   0  0  0  0  0  0  0  0  0  0  0  0
    1.3292   -0.3962   -0.0128 C   0  0  0  0  0  0  0  0  0  0  0  0
    2.0829    0.7895   -0.0136 C   0  0  0  0  0  0  0  0  0  0  0  0
    3.4786    0.7185   -0.0273 C   0  0  0  0  0  0  0  0  0  0  0  0
    1.1998    1.8211    0.0004 N   0  0  0  0  0  0  0  0  0  0  0  0
   -0.0164    1.3576    0.0095 C   0  0  0  0  0  0  0  0  0  0  0  0
    0.0021   -0.0041    0.0020 N   0  0  0  0  0  0  0  0  0  0  0  0
   -1.1161   -0.8516    0.0086 C   0  0  0  0  0  0  0  0  0  0  0  0
   -1.2139   -1.8786   -0.9206 C   0  0  0  0  0  0  0  0  0  0  0  0
   -2.3117   -2.7156   -0.9113 C   0  0  0  0  0  0  0  0  0  0  0  0
   -3.3236   -2.5234    0.0206 C   0  0  0  0  0  0  0  0  0  0  0  0
   -3.2279   -1.4926    0.9466 C   0  0  0  0  0  0  0  0  0  0  0  0
   -2.1271   -0.6594    0.9405 C   0  0  0  0  0  0  0  0  0  0  0  0
   -4.4388   -3.3673    0.0262 N   0  0  0  0  0  0  0  0  0  0  0  0
    5.7101   -2.4260   -0.9557 H   0  0  0  0  0  0  0  0  0  0  0  0
    7.1269   -1.8033   -0.0765 H   0  0  0  0  0  0  0  0  0  0  0  0
    5.7277   -2.4352    0.8241 H   0  0  0  0  0  0  0  0  0  0  0  0
    3.8446   -2.6427   -0.0492 H   0  0  0  0  0  0  0  0  0  0  0  0
    1.3915   -2.5385   -0.0251 H   0  0  0  0  0  0  0  0  0  0  0  0
    4.0676    1.6237   -0.0277 H   0  0  0  0  0  0  0  0  0  0  0  0
   -0.9098    1.9643    0.0172 H   0  0  0  0  0  0  0  0  0  0  0  0
   -0.4292   -2.0252   -1.6480 H   0  0  0  0  0  0  0  0  0  0  0  0
   -2.3857   -3.5173   -1.6312 H   0  0  0  0  0  0  0  0  0  0  0  0
   -4.0147   -1.3427    1.6711 H   0  0  0  0  0  0  0  0  0  0  0  0
   -2.0526    0.1421    1.6605 H   0  0  0  0  0  0  0  0  0  0  0  0
   -5.1455   -3.2328    0.6768 H   0  0  0  0  0  0  0  0  0  0  0  0
   -4.5056   -4.0872   -0.6205 H   0  0  0  0  0  0  0  0  0  0  0  0
  1  2  1  0  0  0  0
  1 19  1  0  0  0  0
  1 20  1  0  0  0  0
  1 21  1  0  0  0  0
  2  3  1  0  0  0  0
  3  8  2  0  0  0  0
  3  4  1  0  0  0  0
  4  5  2  0  0  0  0
  4 22  1  0  0  0  0
  5  6  1  0  0  0  0
  5 23  1  0  0  0  0
  6 11  1  0  0  0  0
  6  7  2  0  0  0  0
  7  8  1  0  0  0  0
  7  9  1  0  0  0  0
  8 24  1  0  0  0  0
  9 10  2  0  0  0  0
 10 11  1  0  0  0  0
 10 25  1  0  0  0  0
 11 12  1  0  0  0  0
 12 17  2  0  0  0  0
 12 13  1  0  0  0  0
 13 14  2  0  0  0  0
 13 26  1  0  0  0  0
 14 15  1  0  0  0  0
 14 27  1  0  0  0  0
 15 16  2  0  0  0  0
 15 18  1  0  0  0  0
 16 17  1  0  0  0  0
 16 28  1  0  0  0  0
 17 29  1  0  0  0  0
 18 30  1  0  0  0  0
 18 31  1  0  0  0  0
M  END
$$$$
ZINC03815794
  -OEChem-08230709403D

 32 34  0     0  0  0  0  0  0999 V2000
    6.0404   -1.8896   -0.0662 C   0  0  0  0  0  0  0  0  0  0  0  0
    5.4589   -0.5843   -0.0537 O   0  0  0  0  0  0  0  0  0  0  0  0
    4.1011   -0.5135   -0.0399 C   0  0  0  0  0  0  0  0  0  0  0  0
    3.3473   -1.6841   -0.0389 C   0  0  0  0  0  0  0  0  0  0  0  0
    1.9706   -1.6269   -0.0259 C   0  0  0  0  0  0  0  0  0  0  0  0
    1.3292   -0.3962   -0.0128 C   0  0  0  0  0  0  0  0  0  0  0  0
    2.0829    0.7895   -0.0136 C   0  0  0  0  0  0  0  0  0  0  0  0
    3.4786    0.7185   -0.0273 C   0  0  0  0  0  0  0  0  0  0  0  0
   -0.0164    1.3576    0.0095 C   0  0  0  0  0  0  0  0  0  0  0  0
    0.0021   -0.0041    0.0020 N   0  0  0  0  0  0  0  0  0  0  0  0
   -1.1161   -0.8516    0.0086 C   0  0  0  0  0  0  0  0  0  0  0  0
   -1.2139   -1.8786   -0.9206 C   0  0  0  0  0  0  0  0  0  0  0  0
   -2.3117   -2.7156   -0.9113 C   0  0  0  0  0  0  0  0  0  0  0  0
   -3.3236   -2.5234    0.0206 C   0  0  0  0  0  0  0  0  0  0  0  0
   -3.2279   -1.4926    0.9466 C   0  0  0  0  0  0  0  0  0  0  0  0
   -2.1271   -0.6594    0.9405 C   0  0  0  0  0  0  0  0  0  0  0  0
   -4.4388   -3.3673    0.0262 N   0  0  0  0  0  0  0  0  0  0  0  0
    5.7101   -2.4260   -0.9557 H   0  0  0  0  0  0  0  0  0  0  0  0
    7.1269   -1.8033   -0.0765 H   0  0  0  0  0  0  0  0  0  0  0  0
    5.7277   -2.4352    0.8241 H   0  0  0  0  0  0  0  0  0  0  0  0
    3.8446   -2.6427   -0.0492 H   0  0  0  0  0  0  0  0  0  0  0  0
    1.3915   -2.5385   -0.0251 H   0  0  0  0  0  0  0  0  0  0  0  0
    4.0676    1.6237   -0.0277 H   0  0  0  0  0  0  0  0  0  0  0  0
   -0.9098    1.9643    0.0172 H   0  0  0  0  0  0  0  0  0  0  0  0
   -0.4292   -2.0252   -1.6480 H   0  0  0  0  0  0  0  0  0  0  0  0
   -2.3857   -3.5173   -1.6312 H   0  0  0  0  0  0  0  0  0  0  0  0
   -4.0147   -1.3427    1.6711 H   0  0  0  0  0  0  0  0  0  0  0  0
   -2.0526    0.1421    1.6605 H   0  0  0  0  0  0  0  0  0  0  0  0
   -5.1455   -3.2328    0.6768 H   0  0  0  0  0  0  0  0  0  0  0  0
   -4.5056   -4.0872   -0.6205 H   0  0  0  0  0  0  0  0  0  0  0  0
    1.2002    1.8225    0.0004 N   0  3  0  0  0  0  0  0  0  0  0  0
    1.4535    2.8175    0.0034 H   0  0  0  0  0  0  0  0  0  0  0  0
  1  2  1  0  0  0  0
  1 18  1  0  0  0  0
  1 19  1  0  0  0  0
  1 20  1  0  0  0  0
  2  3  1  0  0  0  0
  3  8  2  0  0  0  0
  3  4  1  0  0  0  0
  4  5  2  0  0  0  0
  4 21  1  0  0  0  0
  5  6  1  0  0  0  0
  5 22  1  0  0  0  0
  6 10  1  0  0  0  0
  6  7  2  0  0  0  0
  7  8  1  0  0  0  0
  7 31  1  0  0  0  0
  8 23  1  0  0  0  0
  9 10  1  0  0  0  0
  9 24  1  0  0  0  0
  9 31  2  0  0  0  0
 10 11  1  0  0  0  0
 11 16  2  0  0  0  0
 11 12  1  0  0  0  0
 12 13  2  0  0  0  0
 12 25  1  0  0  0  0
 13 14  1  0  0  0  0
 13 26  1  0  0  0  0
 14 15  2  0  0  0  0
 14 17  1  0  0  0  0
 15 16  1  0  0  0  0
 15 27  1  0  0  0  0
 16 28  1  0  0  0  0
 17 29  1  0  0  0  0
 17 30  1  0  0  0  0
 31 32  1  0  0  0  0
M  CHG  1  31   1
M  END
$$$$
ZINC03815796
  -OEChem-08230709403D

 33 35  0     0  0  0  0  0  0999 V2000
    8.1625    4.0986   -0.8561 C   0  0  0  0  0  0  0  0  0  0  0  0
    7.4741    3.3274   -0.0514 C   0  0  0  0  0  0  0  0  0  0  0  0
    5.9692    3.4062   -0.0366 C   0  0  0  0  0  0  0  0  0  0  0  0
    5.4230    2.0857   -0.0385 O   0  0  0  0  0  0  0  0  0  0  0  0
    4.0676    1.9783   -0.0261 C   0  0  0  0  0  0  0  0  0  0  0  0
    3.2826    3.1280   -0.0129 C   0  0  0  0  0  0  0  0  0  0  0  0
    1.9079    3.0336   -0.0003 C   0  0  0  0  0  0  0  0  0  0  0  0
    1.3000    1.7860   -0.0008 C   0  0  0  0  0  0  0  0  0  0  0  0
    2.0852    0.6211   -0.0145 C   0  0  0  0  0  0  0  0  0  0  0  0
    3.4784    0.7299   -0.0272 C   0  0  0  0  0  0  0  0  0  0  0  0
    1.2301   -0.4340   -0.0120 N   0  0  0  0  0  0  0  0  0  0  0  0
    0.0021   -0.0041    0.0020 C   0  0  0  0  0  0  0  0  0  0  0  0
   -0.0164    1.3581    0.0095 N   0  0  0  0  0  0  0  0  0  0  0  0
   -1.1555    2.1739    0.0196 C   0  0  0  0  0  0  0  0  0  0  0  0
   -1.2691    3.1986    0.9496 C   0  0  0  0  0  0  0  0  0  0  0  0
   -2.3902    4.0053    0.9527 C   0  0  0  0  0  0  0  0  0  0  0  0
   -3.4047    3.7851    0.0392 C   0  0  0  0  0  0  0  0  0  0  0  0
   -3.2972    2.7615   -0.8843 C   0  0  0  0  0  0  0  0  0  0  0  0
   -2.1756    1.9556   -0.8967 C   0  0  0  0  0  0  0  0  0  0  0  0
    9.2409    4.0421   -0.8667 H   0  0  0  0  0  0  0  0  0  0  0  0
    7.6515    4.7908   -1.5089 H   0  0  0  0  0  0  0  0  0  0  0  0
    7.9850    2.6352    0.6014 H   0  0  0  0  0  0  0  0  0  0  0  0
    5.6248    3.9431   -0.9205 H   0  0  0  0  0  0  0  0  0  0  0  0
    5.6417    3.9336    0.8594 H   0  0  0  0  0  0  0  0  0  0  0  0
    3.7539    4.0997   -0.0122 H   0  0  0  0  0  0  0  0  0  0  0  0
    1.3044    3.9292    0.0102 H   0  0  0  0  0  0  0  0  0  0  0  0
    4.0916   -0.1591   -0.0382 H   0  0  0  0  0  0  0  0  0  0  0  0
   -0.8745   -0.6349    0.0067 H   0  0  0  0  0  0  0  0  0  0  0  0
   -0.4794    3.3677    1.6667 H   0  0  0  0  0  0  0  0  0  0  0  0
   -2.4768    4.8058    1.6725 H   0  0  0  0  0  0  0  0  0  0  0  0
   -4.2825    4.4142    0.0467 H   0  0  0  0  0  0  0  0  0  0  0  0
   -4.0910    2.5922   -1.5968 H   0  0  0  0  0  0  0  0  0  0  0  0
   -2.0920    1.1567   -1.6187 H   0  0  0  0  0  0  0  0  0  0  0  0
  1  2  2  0  0  0  0
  1 20  1  0  0  0  0
  1 21  1  0  0  0  0
  2  3  1  0  0  0  0
  2 22  1  0  0  0  0
  3  4  1  0  0  0  0
  3 23  1  0  0  0  0
  3 24  1  0  0  0  0
  4  5  1  0  0  0  0
  5 10  2  0  0  0  0
  5  6  1  0  0  0  0
  6  7  2  0  0  0  0
  6 25  1  0  0  0  0
  7  8  1  0  0  0  0
  7 26  1  0  0  0  0
  8 13  1  0  0  0  0
  8  9  2  0  0  0  0
  9 10  1  0  0  0  0
  9 11  1  0  0  0  0
 10 27  1  0  0  0  0
 11 12  2  0  0  0  0
 12 13  1  0  0  0  0
 12 28  1  0  0  0  0
 13 14  1  0  0  0  0
 14 19  2  0  0  0  0
 14 15  1  0  0  0  0
 15 16  2  0  0  0  0
 15 29  1  0  0  0  0
 16 17  1  0  0  0  0
 16 30  1  0  0  0  0
 17 18  2  0  0  0  0
 17 31  1  0  0  0  0
 18 19  1  0  0  0  0
 18 32  1  0  0  0  0
 19 33  1  0  0  0  0
M  END
$$$$
ZINC03815796
  -OEChem-08230709403D

 34 36  0     0  0  0  0  0  0999 V2000
    8.1625    4.0986   -0.8561 C   0  0  0  0  0  0  0  0  0  0  0  0
    7.4741    3.3274   -0.0514 C   0  0  0  0  0  0  0  0  0  0  0  0
    5.9692    3.4062   -0.0366 C   0  0  0  0  0  0  0  0  0  0  0  0
    5.4230    2.0857   -0.0385 O   0  0  0  0  0  0  0  0  0  0  0  0
    4.0676    1.9783   -0.0261 C   0  0  0  0  0  0  0  0  0  0  0  0
    3.2826    3.1280   -0.0129 C   0  0  0  0  0  0  0  0  0  0  0  0
    1.9079    3.0336   -0.0003 C   0  0  0  0  0  0  0  0  0  0  0  0
    1.3000    1.7860   -0.0008 C   0  0  0  0  0  0  0  0  0  0  0  0
    2.0852    0.6211   -0.0145 C   0  0  0  0  0  0  0  0  0  0  0  0
    3.4784    0.7299   -0.0272 C   0  0  0  0  0  0  0  0  0  0  0  0
    0.0021   -0.0041    0.0020 C   0  0  0  0  0  0  0  0  0  0  0  0
   -0.0164    1.3581    0.0095 N   0  0  0  0  0  0  0  0  0  0  0  0
   -1.1555    2.1739    0.0196 C   0  0  0  0  0  0  0  0  0  0  0  0
   -1.2691    3.1986    0.9496 C   0  0  0  0  0  0  0  0  0  0  0  0
   -2.3902    4.0053    0.9527 C   0  0  0  0  0  0  0  0  0  0  0  0
   -3.4047    3.7851    0.0392 C   0  0  0  0  0  0  0  0  0  0  0  0
   -3.2972    2.7615   -0.8843 C   0  0  0  0  0  0  0  0  0  0  0  0
   -2.1756    1.9556   -0.8967 C   0  0  0  0  0  0  0  0  0  0  0  0
    9.2409    4.0421   -0.8667 H   0  0  0  0  0  0  0  0  0  0  0  0
    7.6515    4.7908   -1.5089 H   0  0  0  0  0  0  0  0  0  0  0  0
    7.9850    2.6352    0.6014 H   0  0  0  0  0  0  0  0  0  0  0  0
    5.6248    3.9431   -0.9205 H   0  0  0  0  0  0  0  0  0  0  0  0
    5.6417    3.9336    0.8594 H   0  0  0  0  0  0  0  0  0  0  0  0
    3.7539    4.0997   -0.0122 H   0  0  0  0  0  0  0  0  0  0  0  0
    1.3044    3.9292    0.0102 H   0  0  0  0  0  0  0  0  0  0  0  0
    4.0916   -0.1591   -0.0382 H   0  0  0  0  0  0  0  0  0  0  0  0
   -0.8745   -0.6349    0.0067 H   0  0  0  0  0  0  0  0  0  0  0  0
   -0.4794    3.3677    1.6667 H   0  0  0  0  0  0  0  0  0  0  0  0
   -2.4768    4.8058    1.6725 H   0  0  0  0  0  0  0  0  0  0  0  0
   -4.2825    4.4142    0.0467 H   0  0  0  0  0  0  0  0  0  0  0  0
   -4.0910    2.5922   -1.5968 H   0  0  0  0  0  0  0  0  0  0  0  0
   -2.0920    1.1567   -1.6187 H   0  0  0  0  0  0  0  0  0  0  0  0
    1.2305   -0.4356   -0.0120 N   0  3  0  0  0  0  0  0  0  0  0  0
    1.5107   -1.4233   -0.0200 H   0  0  0  0  0  0  0  0  0  0  0  0
  1  2  2  0  0  0  0
  1 19  1  0  0  0  0
  1 20  1  0  0  0  0
  2  3  1  0  0  0  0
  2 21  1  0  0  0  0
  3  4  1  0  0  0  0
  3 22  1  0  0  0  0
  3 23  1  0  0  0  0
  4  5  1  0  0  0  0
  5 10  2  0  0  0  0
  5  6  1  0  0  0  0
  6  7  2  0  0  0  0
  6 24  1  0  0  0  0
  7  8  1  0  0  0  0
  7 25  1  0  0  0  0
  8 12  1  0  0  0  0
  8  9  2  0  0  0  0
  9 10  1  0  0  0  0
  9 33  1  0  0  0  0
 10 26  1  0  0  0  0
 11 12  1  0  0  0  0
 11 27  1  0  0  0  0
 11 33  2  0  0  0  0
 12 13  1  0  0  0  0
 13 18  2  0  0  0  0
 13 14  1  0  0  0  0
 14 15  2  0  0  0  0
 14 28  1  0  0  0  0
 15 16  1  0  0  0  0
 15 29  1  0  0  0  0
 16 17  2  0  0  0  0
 16 30  1  0  0  0  0
 17 18  1  0  0  0  0
 17 31  1  0  0  0  0
 18 32  1  0  0  0  0
 33 34  1  0  0  0  0
M  CHG  1  33   1
M  END
$$$$
ZINC03815797
  -OEChem-08230709403D

 26 28  0     0  0  0  0  0  0999 V2000
    2.3721    9.1488   -3.9391 C   0  0  0  0  0  0  0  0  0  0  0  0
    3.2137    8.6916   -2.8786 O   0  0  0  0  0  0  0  0  0  0  0  0
    2.8099    7.5816   -2.2048 C   0  0  0  0  0  0  0  0  0  0  0  0
    1.6229    6.9483   -2.5634 C   0  0  0  0  0  0  0  0  0  0  0  0
    1.2022    5.8223   -1.8900 C   0  0  0  0  0  0  0  0  0  0  0  0
    1.9644    5.3146   -0.8469 C   0  0  0  0  0  0  0  0  0  0  0  0
    3.1616    5.9503   -0.4765 C   0  0  0  0  0  0  0  0  0  0  0  0
    3.5751    7.0946   -1.1643 C   0  0  0  0  0  0  0  0  0  0  0  0
    3.6867    5.2377    0.5529 N   0  0  0  0  0  0  0  0  0  0  0  0
    2.9063    4.2344    0.8350 C   0  0  0  0  0  0  0  0  0  0  0  0
    1.8271    4.2343    0.0061 N   0  0  0  0  0  0  0  0  0  0  0  0
    0.7703    3.3040    0.0117 C   0  0  0  0  0  0  0  0  0  0  0  0
    1.0291    1.9424    0.0027 C   0  0  0  0  0  0  0  0  0  0  0  0
   -0.0126    1.0758    0.0080 C   0  0  0  0  0  0  0  0  0  0  0  0
   -1.4154    2.1796    0.0194 S   0  0  0  0  0  0  0  0  0  0  0  0
   -0.5224    3.7253    0.0256 C   0  0  0  0  0  0  0  0  0  0  0  0
    1.3859    9.3897   -3.5422 H   0  0  0  0  0  0  0  0  0  0  0  0
    2.8090   10.0390   -4.3916 H   0  0  0  0  0  0  0  0  0  0  0  0
    2.2794    8.3664   -4.6924 H   0  0  0  0  0  0  0  0  0  0  0  0
    1.0285    7.3418   -3.3747 H   0  0  0  0  0  0  0  0  0  0  0  0
    0.2809    5.3353   -2.1735 H   0  0  0  0  0  0  0  0  0  0  0  0
    4.4957    7.5887   -0.8907 H   0  0  0  0  0  0  0  0  0  0  0  0
    3.0891    3.5081    1.6130 H   0  0  0  0  0  0  0  0  0  0  0  0
    2.0456    1.5776   -0.0088 H   0  0  0  0  0  0  0  0  0  0  0  0
    0.0021   -0.0041    0.0020 H   0  0  0  0  0  0  0  0  0  0  0  0
   -0.9087    4.7338    0.0345 H   0  0  0  0  0  0  0  0  0  0  0  0
  1  2  1  0  0  0  0
  1 17  1  0  0  0  0
  1 18  1  0  0  0  0
  1 19  1  0  0  0  0
  2  3  1  0  0  0  0
  3  8  2  0  0  0  0
  3  4  1  0  0  0  0
  4  5  2  0  0  0  0
  4 20  1  0  0  0  0
  5  6  1  0  0  0  0
  5 21  1  0  0  0  0
  6 11  1  0  0  0  0
  6  7  2  0  0  0  0
  7  8  1  0  0  0  0
  7  9  1  0  0  0  0
  8 22  1  0  0  0  0
  9 10  2  0  0  0  0
 10 11  1  0  0  0  0
 10 23  1  0  0  0  0
 11 12  1  0  0  0  0
 12 16  2  0  0  0  0
 12 13  1  0  0  0  0
 13 14  2  0  0  0  0
 13 24  1  0  0  0  0
 14 15  1  0  0  0  0
 14 25  1  0  0  0  0
 15 16  1  0  0  0  0
 16 26  1  0  0  0  0
M  END
$$$$
ZINC03815797
  -OEChem-08230709403D

 27 29  0     0  0  0  0  0  0999 V2000
    2.3721    9.1488   -3.9391 C   0  0  0  0  0  0  0  0  0  0  0  0
    3.2137    8.6916   -2.8786 O   0  0  0  0  0  0  0  0  0  0  0  0
    2.8099    7.5816   -2.2048 C   0  0  0  0  0  0  0  0  0  0  0  0
    1.6229    6.9483   -2.5634 C   0  0  0  0  0  0  0  0  0  0  0  0
    1.2022    5.8223   -1.8900 C   0  0  0  0  0  0  0  0  0  0  0  0
    1.9644    5.3146   -0.8469 C   0  0  0  0  0  0  0  0  0  0  0  0
    3.1616    5.9503   -0.4765 C   0  0  0  0  0  0  0  0  0  0  0  0
    3.5751    7.0946   -1.1643 C   0  0  0  0  0  0  0  0  0  0  0  0
    2.9063    4.2344    0.8350 C   0  0  0  0  0  0  0  0  0  0  0  0
    1.8271    4.2343    0.0061 N   0  0  0  0  0  0  0  0  0  0  0  0
    0.7703    3.3040    0.0117 C   0  0  0  0  0  0  0  0  0  0  0  0
    1.0291    1.9424    0.0027 C   0  0  0  0  0  0  0  0  0  0  0  0
   -0.0126    1.0758    0.0080 C   0  0  0  0  0  0  0  0  0  0  0  0
   -1.4154    2.1796    0.0194 S   0  0  0  0  0  0  0  0  0  0  0  0
   -0.5224    3.7253    0.0256 C   0  0  0  0  0  0  0  0  0  0  0  0
    1.3859    9.3897   -3.5422 H   0  0  0  0  0  0  0  0  0  0  0  0
    2.8090   10.0390   -4.3916 H   0  0  0  0  0  0  0  0  0  0  0  0
    2.2794    8.3664   -4.6924 H   0  0  0  0  0  0  0  0  0  0  0  0
    1.0285    7.3418   -3.3747 H   0  0  0  0  0  0  0  0  0  0  0  0
    0.2809    5.3353   -2.1735 H   0  0  0  0  0  0  0  0  0  0  0  0
    4.4957    7.5887   -0.8907 H   0  0  0  0  0  0  0  0  0  0  0  0
    3.0891    3.5081    1.6130 H   0  0  0  0  0  0  0  0  0  0  0  0
    2.0456    1.5776   -0.0088 H   0  0  0  0  0  0  0  0  0  0  0  0
    0.0021   -0.0041    0.0020 H   0  0  0  0  0  0  0  0  0  0  0  0
   -0.9087    4.7338    0.0345 H   0  0  0  0  0  0  0  0  0  0  0  0
    3.6879    5.2380    0.5536 N   0  3  0  0  0  0  0  0  0  0  0  0
    4.5671    5.4570    1.0364 H   0  0  0  0  0  0  0  0  0  0  0  0
  1  2  1  0  0  0  0
  1 16  1  0  0  0  0
  1 17  1  0  0  0  0
  1 18  1  0  0  0  0
  2  3  1  0  0  0  0
  3  8  2  0  0  0  0
  3  4  1  0  0  0  0
  4  5  2  0  0  0  0
  4 19  1  0  0  0  0
  5  6  1  0  0  0  0
  5 20  1  0  0  0  0
  6 10  1  0  0  0  0
  6  7  2  0  0  0  0
  7  8  1  0  0  0  0
  7 26  1  0  0  0  0
  8 21  1  0  0  0  0
  9 10  1  0  0  0  0
  9 22  1  0  0  0  0
  9 26  2  0  0  0  0
 10 11  1  0  0  0  0
 11 15  2  0  0  0  0
 11 12  1  0  0  0  0
 12 13  2  0  0  0  0
 12 23  1  0  0  0  0
 13 14  1  0  0  0  0
 13 24  1  0  0  0  0
 14 15  1  0  0  0  0
 15 25  1  0  0  0  0
 26 27  1  0  0  0  0
M  CHG  1  26   1
M  END
$$$$
ZINC03815798
  -OEChem-08230709403D

 29 31  0     0  0  0  0  0  0999 V2000
    6.1232    3.9083   -0.0371 C   0  0  0  0  0  0  0  0  0  0  0  0
    5.8253    2.1189   -0.0435 S   0  0  0  0  0  0  0  0  0  0  0  0
    4.0689    1.9792   -0.0269 C   0  0  0  0  0  0  0  0  0  0  0  0
    3.2818    3.1301   -0.0128 C   0  0  0  0  0  0  0  0  0  0  0  0
    1.9078    3.0341    0.0002 C   0  0  0  0  0  0  0  0  0  0  0  0
    1.3005    1.7860   -0.0008 C   0  0  0  0  0  0  0  0  0  0  0  0
    2.0854    0.6209   -0.0145 C   0  0  0  0  0  0  0  0  0  0  0  0
    3.4784    0.7288   -0.0276 C   0  0  0  0  0  0  0  0  0  0  0  0
    1.2301   -0.4342   -0.0120 N   0  0  0  0  0  0  0  0  0  0  0  0
    0.0021   -0.0041    0.0020 C   0  0  0  0  0  0  0  0  0  0  0  0
   -0.0164    1.3580    0.0095 N   0  0  0  0  0  0  0  0  0  0  0  0
   -1.1555    2.1738    0.0196 C   0  0  0  0  0  0  0  0  0  0  0  0
   -1.2691    3.1985    0.9497 C   0  0  0  0  0  0  0  0  0  0  0  0
   -2.3908    4.0043    0.9537 C   0  0  0  0  0  0  0  0  0  0  0  0
   -3.4051    3.7844    0.0399 C   0  0  0  0  0  0  0  0  0  0  0  0
   -3.2974    2.7611   -0.8839 C   0  0  0  0  0  0  0  0  0  0  0  0
   -2.1756    1.9556   -0.8967 C   0  0  0  0  0  0  0  0  0  0  0  0
    5.6674    4.3557   -0.9203 H   0  0  0  0  0  0  0  0  0  0  0  0
    5.6848    4.3464    0.8595 H   0  0  0  0  0  0  0  0  0  0  0  0
    7.1966    4.0979   -0.0467 H   0  0  0  0  0  0  0  0  0  0  0  0
    3.7522    4.1022   -0.0116 H   0  0  0  0  0  0  0  0  0  0  0  0
    1.3036    3.9292    0.0115 H   0  0  0  0  0  0  0  0  0  0  0  0
    4.0913   -0.1604   -0.0386 H   0  0  0  0  0  0  0  0  0  0  0  0
   -0.8745   -0.6349    0.0067 H   0  0  0  0  0  0  0  0  0  0  0  0
   -0.4792    3.3678    1.6666 H   0  0  0  0  0  0  0  0  0  0  0  0
   -2.4778    4.8043    1.6740 H   0  0  0  0  0  0  0  0  0  0  0  0
   -4.2829    4.4135    0.0474 H   0  0  0  0  0  0  0  0  0  0  0  0
   -4.0912    2.5919   -1.5964 H   0  0  0  0  0  0  0  0  0  0  0  0
   -2.0918    1.1569   -1.6189 H   0  0  0  0  0  0  0  0  0  0  0  0
  1  2  1  0  0  0  0
  1 18  1  0  0  0  0
  1 19  1  0  0  0  0
  1 20  1  0  0  0  0
  2  3  1  0  0  0  0
  3  8  2  0  0  0  0
  3  4  1  0  0  0  0
  4  5  2  0  0  0  0
  4 21  1  0  0  0  0
  5  6  1  0  0  0  0
  5 22  1  0  0  0  0
  6 11  1  0  0  0  0
  6  7  2  0  0  0  0
  7  8  1  0  0  0  0
  7  9  1  0  0  0  0
  8 23  1  0  0  0  0
  9 10  2  0  0  0  0
 10 11  1  0  0  0  0
 10 24  1  0  0  0  0
 11 12  1  0  0  0  0
 12 17  2  0  0  0  0
 12 13  1  0  0  0  0
 13 14  2  0  0  0  0
 13 25  1  0  0  0  0
 14 15  1  0  0  0  0
 14 26  1  0  0  0  0
 15 16  2  0  0  0  0
 15 27  1  0  0  0  0
 16 17  1  0  0  0  0
 16 28  1  0  0  0  0
 17 29  1  0  0  0  0
M  END
$$$$
ZINC03815798
  -OEChem-08230709403D

 30 32  0     0  0  0  0  0  0999 V2000
    6.1232    3.9083   -0.0371 C   0  0  0  0  0  0  0  0  0  0  0  0
    5.8253    2.1189   -0.0435 S   0  0  0  0  0  0  0  0  0  0  0  0
    4.0689    1.9792   -0.0269 C   0  0  0  0  0  0  0  0  0  0  0  0
    3.2818    3.1301   -0.0128 C   0  0  0  0  0  0  0  0  0  0  0  0
    1.9078    3.0341    0.0002 C   0  0  0  0  0  0  0  0  0  0  0  0
    1.3005    1.7860   -0.0008 C   0  0  0  0  0  0  0  0  0  0  0  0
    2.0854    0.6209   -0.0145 C   0  0  0  0  0  0  0  0  0  0  0  0
    3.4784    0.7288   -0.0276 C   0  0  0  0  0  0  0  0  0  0  0  0
    0.0021   -0.0041    0.0020 C   0  0  0  0  0  0  0  0  0  0  0  0
   -0.0164    1.3580    0.0095 N   0  0  0  0  0  0  0  0  0  0  0  0
   -1.1555    2.1738    0.0196 C   0  0  0  0  0  0  0  0  0  0  0  0
   -1.2691    3.1985    0.9497 C   0  0  0  0  0  0  0  0  0  0  0  0
   -2.3908    4.0043    0.9537 C   0  0  0  0  0  0  0  0  0  0  0  0
   -3.4051    3.7844    0.0399 C   0  0  0  0  0  0  0  0  0  0  0  0
   -3.2974    2.7611   -0.8839 C   0  0  0  0  0  0  0  0  0  0  0  0
   -2.1756    1.9556   -0.8967 C   0  0  0  0  0  0  0  0  0  0  0  0
    5.6674    4.3557   -0.9203 H   0  0  0  0  0  0  0  0  0  0  0  0
    5.6848    4.3464    0.8595 H   0  0  0  0  0  0  0  0  0  0  0  0
    7.1966    4.0979   -0.0467 H   0  0  0  0  0  0  0  0  0  0  0  0
    3.7522    4.1022   -0.0116 H   0  0  0  0  0  0  0  0  0  0  0  0
    1.3036    3.9292    0.0115 H   0  0  0  0  0  0  0  0  0  0  0  0
    4.0913   -0.1604   -0.0386 H   0  0  0  0  0  0  0  0  0  0  0  0
   -0.8745   -0.6349    0.0067 H   0  0  0  0  0  0  0  0  0  0  0  0
   -0.4792    3.3678    1.6666 H   0  0  0  0  0  0  0  0  0  0  0  0
   -2.4778    4.8043    1.6740 H   0  0  0  0  0  0  0  0  0  0  0  0
   -4.2829    4.4135    0.0474 H   0  0  0  0  0  0  0  0  0  0  0  0
   -4.0912    2.5919   -1.5964 H   0  0  0  0  0  0  0  0  0  0  0  0
   -2.0918    1.1569   -1.6189 H   0  0  0  0  0  0  0  0  0  0  0  0
    1.2305   -0.4358   -0.0120 N   0  3  0  0  0  0  0  0  0  0  0  0
    1.5106   -1.4235   -0.0200 H   0  0  0  0  0  0  0  0  0  0  0  0
  1  2  1  0  0  0  0
  1 17  1  0  0  0  0
  1 18  1  0  0  0  0
  1 19  1  0  0  0  0
  2  3  1  0  0  0  0
  3  8  2  0  0  0  0
  3  4  1  0  0  0  0
  4  5  2  0  0  0  0
  4 20  1  0  0  0  0
  5  6  1  0  0  0  0
  5 21  1  0  0  0  0
  6 10  1  0  0  0  0
  6  7  2  0  0  0  0
  7  8  1  0  0  0  0
  7 29  1  0  0  0  0
  8 22  1  0  0  0  0
  9 10  1  0  0  0  0
  9 23  1  0  0  0  0
  9 29  2  0  0  0  0
 10 11  1  0  0  0  0
 11 16  2  0  0  0  0
 11 12  1  0  0  0  0
 12 13  2  0  0  0  0
 12 24  1  0  0  0  0
 13 14  1  0  0  0  0
 13 25  1  0  0  0  0
 14 15  2  0  0  0  0
 14 26  1  0  0  0  0
 15 16  1  0  0  0  0
 15 27  1  0  0  0  0
 16 28  1  0  0  0  0
 29 30  1  0  0  0  0
M  CHG  1  29   1
M  END
$$$$
ZINC03815799
  -OEChem-08230709403D

 31 33  0     0  0  0  0  0  0999 V2000
    5.8341    8.0339   -4.6506 C   0  0  0  0  0  0  0  0  0  0  0  0
    5.1397    6.9542   -3.9721 O   0  0  0  0  0  0  0  0  0  0  0  0
    5.7948    6.3425   -2.9661 C   0  0  0  0  0  0  0  0  0  0  0  0
    6.9156    6.7013   -2.6641 O   0  0  0  0  0  0  0  0  0  0  0  0
    5.1511    5.2367   -2.2313 C   0  0  0  0  0  0  0  0  0  0  0  0
    3.8581    4.8238   -2.5816 C   0  0  0  0  0  0  0  0  0  0  0  0
    3.2527    3.8023   -1.9098 C   0  0  0  0  0  0  0  0  0  0  0  0
    3.9178    3.1569   -0.8732 C   0  0  0  0  0  0  0  0  0  0  0  0
    5.2139    3.5621   -0.5041 C   0  0  0  0  0  0  0  0  0  0  0  0
    5.8297    4.6060   -1.1923 C   0  0  0  0  0  0  0  0  0  0  0  0
    5.5998    2.7659    0.5273 N   0  0  0  0  0  0  0  0  0  0  0  0
    4.6481    1.9257    0.8100 C   0  0  0  0  0  0  0  0  0  0  0  0
    3.5855    2.1246   -0.0204 N   0  0  0  0  0  0  0  0  0  0  0  0
    2.3808    1.4090   -0.0132 C   0  0  0  0  0  0  0  0  0  0  0  0
    1.1691    2.0868    0.0021 C   0  0  0  0  0  0  0  0  0  0  0  0
   -0.0167    1.3786    0.0096 C   0  0  0  0  0  0  0  0  0  0  0  0
    0.0021   -0.0041    0.0020 C   0  0  0  0  0  0  0  0  0  0  0  0
    1.2072   -0.6819   -0.0127 C   0  0  0  0  0  0  0  0  0  0  0  0
    2.3963    0.0206   -0.0203 C   0  0  0  0  0  0  0  0  0  0  0  0
    6.0708    8.8205   -3.9342 H   0  0  0  0  0  0  0  0  0  0  0  0
    6.7561    7.6533   -5.0902 H   0  0  0  0  0  0  0  0  0  0  0  0
    5.1966    8.4384   -5.4369 H   0  0  0  0  0  0  0  0  0  0  0  0
    3.3375    5.3180   -3.3886 H   0  0  0  0  0  0  0  0  0  0  0  0
    2.2563    3.4911   -2.1868 H   0  0  0  0  0  0  0  0  0  0  0  0
    6.8260    4.9230   -0.9218 H   0  0  0  0  0  0  0  0  0  0  0  0
    4.6932    1.1791    1.5892 H   0  0  0  0  0  0  0  0  0  0  0  0
    1.1538    3.1667    0.0077 H   0  0  0  0  0  0  0  0  0  0  0  0
   -0.9595    1.9053    0.0170 H   0  0  0  0  0  0  0  0  0  0  0  0
   -0.9264   -0.5556    0.0080 H   0  0  0  0  0  0  0  0  0  0  0  0
    1.2187   -1.7619   -0.0186 H   0  0  0  0  0  0  0  0  0  0  0  0
    3.3373   -0.5094   -0.0322 H   0  0  0  0  0  0  0  0  0  0  0  0
  1  2  1  0  0  0  0
  1 20  1  0  0  0  0
  1 21  1  0  0  0  0
  1 22  1  0  0  0  0
  2  3  1  0  0  0  0
  3  4  2  0  0  0  0
  3  5  1  0  0  0  0
  5 10  2  0  0  0  0
  5  6  1  0  0  0  0
  6  7  2  0  0  0  0
  6 23  1  0  0  0  0
  7  8  1  0  0  0  0
  7 24  1  0  0  0  0
  8 13  1  0  0  0  0
  8  9  2  0  0  0  0
  9 10  1  0  0  0  0
  9 11  1  0  0  0  0
 10 25  1  0  0  0  0
 11 12  2  0  0  0  0
 12 13  1  0  0  0  0
 12 26  1  0  0  0  0
 13 14  1  0  0  0  0
 14 19  2  0  0  0  0
 14 15  1  0  0  0  0
 15 16  2  0  0  0  0
 15 27  1  0  0  0  0
 16 17  1  0  0  0  0
 16 28  1  0  0  0  0
 17 18  2  0  0  0  0
 17 29  1  0  0  0  0
 18 19  1  0  0  0  0
 18 30  1  0  0  0  0
 19 31  1  0  0  0  0
M  END
$$$$
ZINC03815799
  -OEChem-08230709403D

 32 34  0     0  0  0  0  0  0999 V2000
    5.8341    8.0339   -4.6506 C   0  0  0  0  0  0  0  0  0  0  0  0
    5.1397    6.9542   -3.9721 O   0  0  0  0  0  0  0  0  0  0  0  0
    5.7948    6.3425   -2.9661 C   0  0  0  0  0  0  0  0  0  0  0  0
    6.9156    6.7013   -2.6641 O   0  0  0  0  0  0  0  0  0  0  0  0
    5.1511    5.2367   -2.2313 C   0  0  0  0  0  0  0  0  0  0  0  0
    3.8581    4.8238   -2.5816 C   0  0  0  0  0  0  0  0  0  0  0  0
    3.2527    3.8023   -1.9098 C   0  0  0  0  0  0  0  0  0  0  0  0
    3.9178    3.1569   -0.8732 C   0  0  0  0  0  0  0  0  0  0  0  0
    5.2139    3.5621   -0.5041 C   0  0  0  0  0  0  0  0  0  0  0  0
    5.8297    4.6060   -1.1923 C   0  0  0  0  0  0  0  0  0  0  0  0
    4.6481    1.9257    0.8100 C   0  0  0  0  0  0  0  0  0  0  0  0
    3.5855    2.1246   -0.0204 N   0  0  0  0  0  0  0  0  0  0  0  0
    2.3808    1.4090   -0.0132 C   0  0  0  0  0  0  0  0  0  0  0  0
    1.1691    2.0868    0.0021 C   0  0  0  0  0  0  0  0  0  0  0  0
   -0.0167    1.3786    0.0096 C   0  0  0  0  0  0  0  0  0  0  0  0
    0.0021   -0.0041    0.0020 C   0  0  0  0  0  0  0  0  0  0  0  0
    1.2072   -0.6819   -0.0127 C   0  0  0  0  0  0  0  0  0  0  0  0
    2.3963    0.0206   -0.0203 C   0  0  0  0  0  0  0  0  0  0  0  0
    6.0708    8.8205   -3.9342 H   0  0  0  0  0  0  0  0  0  0  0  0
    6.7561    7.6533   -5.0902 H   0  0  0  0  0  0  0  0  0  0  0  0
    5.1966    8.4384   -5.4369 H   0  0  0  0  0  0  0  0  0  0  0  0
    3.3375    5.3180   -3.3886 H   0  0  0  0  0  0  0  0  0  0  0  0
    2.2563    3.4911   -2.1868 H   0  0  0  0  0  0  0  0  0  0  0  0
    6.8260    4.9230   -0.9218 H   0  0  0  0  0  0  0  0  0  0  0  0
    4.6932    1.1791    1.5892 H   0  0  0  0  0  0  0  0  0  0  0  0
    1.1538    3.1667    0.0077 H   0  0  0  0  0  0  0  0  0  0  0  0
   -0.9595    1.9053    0.0170 H   0  0  0  0  0  0  0  0  0  0  0  0
   -0.9264   -0.5556    0.0080 H   0  0  0  0  0  0  0  0  0  0  0  0
    1.2187   -1.7619   -0.0186 H   0  0  0  0  0  0  0  0  0  0  0  0
    3.3373   -0.5094   -0.0322 H   0  0  0  0  0  0  0  0  0  0  0  0
    5.6006    2.7659    0.5277 N   0  3  0  0  0  0  0  0  0  0  0  0
    6.5053    2.8195    1.0102 H   0  0  0  0  0  0  0  0  0  0  0  0
  1  2  1  0  0  0  0
  1 19  1  0  0  0  0
  1 20  1  0  0  0  0
  1 21  1  0  0  0  0
  2  3  1  0  0  0  0
  3  4  2  0  0  0  0
  3  5  1  0  0  0  0
  5 10  2  0  0  0  0
  5  6  1  0  0  0  0
  6  7  2  0  0  0  0
  6 22  1  0  0  0  0
  7  8  1  0  0  0  0
  7 23  1  0  0  0  0
  8 12  1  0  0  0  0
  8  9  2  0  0  0  0
  9 10  1  0  0  0  0
  9 31  1  0  0  0  0
 10 24  1  0  0  0  0
 11 12  1  0  0  0  0
 11 25  1  0  0  0  0
 11 31  2  0  0  0  0
 12 13  1  0  0  0  0
 13 18  2  0  0  0  0
 13 14  1  0  0  0  0
 14 15  2  0  0  0  0
 14 26  1  0  0  0  0
 15 16  1  0  0  0  0
 15 27  1  0  0  0  0
 16 17  2  0  0  0  0
 16 28  1  0  0  0  0
 17 18  1  0  0  0  0
 17 29  1  0  0  0  0
 18 30  1  0  0  0  0
 31 32  1  0  0  0  0
M  CHG  1  31   1
M  END
$$$$
ZINC03815800
  -OEChem-08230709403D

 30 32  0     0  0  0  0  0  0999 V2000
    7.1286    6.8613   -2.5228 C   0  0  0  0  0  0  0  0  0  0  0  0
    5.7858    6.3407   -2.9664 C   0  0  0  0  0  0  0  0  0  0  0  0
    5.2333    6.8303   -3.9287 O   0  0  0  0  0  0  0  0  0  0  0  0
    5.1456    5.2399   -2.2329 C   0  0  0  0  0  0  0  0  0  0  0  0
    3.8458    4.8330   -2.5743 C   0  0  0  0  0  0  0  0  0  0  0  0
    3.2423    3.8128   -1.9004 C   0  0  0  0  0  0  0  0  0  0  0  0
    3.9137    3.1606   -0.8712 C   0  0  0  0  0  0  0  0  0  0  0  0
    5.2149    3.5585   -0.5108 C   0  0  0  0  0  0  0  0  0  0  0  0
    5.8304    4.6012   -1.1996 C   0  0  0  0  0  0  0  0  0  0  0  0
    5.6047    2.7571    0.5155 N   0  0  0  0  0  0  0  0  0  0  0  0
    4.6509    1.9210    0.8027 C   0  0  0  0  0  0  0  0  0  0  0  0
    3.5829    2.1279   -0.0192 N   0  0  0  0  0  0  0  0  0  0  0  0
    2.3748    1.4183   -0.0049 C   0  0  0  0  0  0  0  0  0  0  0  0
    1.1666    2.1021    0.0202 C   0  0  0  0  0  0  0  0  0  0  0  0
   -0.0226    1.3999    0.0334 C   0  0  0  0  0  0  0  0  0  0  0  0
   -0.0108    0.0172    0.0221 C   0  0  0  0  0  0  0  0  0  0  0  0
    1.1908   -0.6667   -0.0025 C   0  0  0  0  0  0  0  0  0  0  0  0
    2.3833    0.0299   -0.0162 C   0  0  0  0  0  0  0  0  0  0  0  0
    7.4743    6.2961   -1.7738 H   0  0  0  0  0  0  0  0  0  0  0  0
    7.8271    6.8236   -3.3587 H   0  0  0  0  0  0  0  0  0  0  0  0
    7.0246    7.8915   -2.1824 H   0  0  0  0  0  0  0  0  0  0  0  0
    3.3206    5.3316   -3.3755 H   0  0  0  0  0  0  0  0  0  0  0  0
    2.2420    3.5071   -2.1694 H   0  0  0  0  0  0  0  0  0  0  0  0
    6.8304    4.9124   -0.9356 H   0  0  0  0  0  0  0  0  0  0  0  0
    4.6978    1.1722    1.5795 H   0  0  0  0  0  0  0  0  0  0  0  0
    1.1568    3.1821    0.0290 H   0  0  0  0  0  0  0  0  0  0  0  0
   -0.9627    1.9312    0.0480 H   0  0  0  0  0  0  0  0  0  0  0  0
   -0.9420   -0.5298    0.0328 H   0  0  0  0  0  0  0  0  0  0  0  0
    1.1968   -1.7467   -0.0112 H   0  0  0  0  0  0  0  0  0  0  0  0
    3.3215   -0.5047   -0.0360 H   0  0  0  0  0  0  0  0  0  0  0  0
  1  2  1  0  0  0  0
  1 19  1  0  0  0  0
  1 20  1  0  0  0  0
  1 21  1  0  0  0  0
  2  3  2  0  0  0  0
  2  4  1  0  0  0  0
  4  9  2  0  0  0  0
  4  5  1  0  0  0  0
  5  6  2  0  0  0  0
  5 22  1  0  0  0  0
  6  7  1  0  0  0  0
  6 23  1  0  0  0  0
  7 12  1  0  0  0  0
  7  8  2  0  0  0  0
  8  9  1  0  0  0  0
  8 10  1  0  0  0  0
  9 24  1  0  0  0  0
 10 11  2  0  0  0  0
 11 12  1  0  0  0  0
 11 25  1  0  0  0  0
 12 13  1  0  0  0  0
 13 18  2  0  0  0  0
 13 14  1  0  0  0  0
 14 15  2  0  0  0  0
 14 26  1  0  0  0  0
 15 16  1  0  0  0  0
 15 27  1  0  0  0  0
 16 17  2  0  0  0  0
 16 28  1  0  0  0  0
 17 18  1  0  0  0  0
 17 29  1  0  0  0  0
 18 30  1  0  0  0  0
M  END
$$$$
ZINC03815800
  -OEChem-08230709403D

 31 33  0     0  0  0  0  0  0999 V2000
    7.1286    6.8613   -2.5228 C   0  0  0  0  0  0  0  0  0  0  0  0
    5.7858    6.3407   -2.9664 C   0  0  0  0  0  0  0  0  0  0  0  0
    5.2333    6.8303   -3.9287 O   0  0  0  0  0  0  0  0  0  0  0  0
    5.1456    5.2399   -2.2329 C   0  0  0  0  0  0  0  0  0  0  0  0
    3.8458    4.8330   -2.5743 C   0  0  0  0  0  0  0  0  0  0  0  0
    3.2423    3.8128   -1.9004 C   0  0  0  0  0  0  0  0  0  0  0  0
    3.9137    3.1606   -0.8712 C   0  0  0  0  0  0  0  0  0  0  0  0
    5.2149    3.5585   -0.5108 C   0  0  0  0  0  0  0  0  0  0  0  0
    5.8304    4.6012   -1.1996 C   0  0  0  0  0  0  0  0  0  0  0  0
    4.6509    1.9210    0.8027 C   0  0  0  0  0  0  0  0  0  0  0  0
    3.5829    2.1279   -0.0192 N   0  0  0  0  0  0  0  0  0  0  0  0
    2.3748    1.4183   -0.0049 C   0  0  0  0  0  0  0  0  0  0  0  0
    1.1666    2.1021    0.0202 C   0  0  0  0  0  0  0  0  0  0  0  0
   -0.0226    1.3999    0.0334 C   0  0  0  0  0  0  0  0  0  0  0  0
   -0.0108    0.0172    0.0221 C   0  0  0  0  0  0  0  0  0  0  0  0
    1.1908   -0.6667   -0.0025 C   0  0  0  0  0  0  0  0  0  0  0  0
    2.3833    0.0299   -0.0162 C   0  0  0  0  0  0  0  0  0  0  0  0
    7.4743    6.2961   -1.7738 H   0  0  0  0  0  0  0  0  0  0  0  0
    7.8271    6.8236   -3.3587 H   0  0  0  0  0  0  0  0  0  0  0  0
    7.0246    7.8915   -2.1824 H   0  0  0  0  0  0  0  0  0  0  0  0
    3.3206    5.3316   -3.3755 H   0  0  0  0  0  0  0  0  0  0  0  0
    2.2420    3.5071   -2.1694 H   0  0  0  0  0  0  0  0  0  0  0  0
    6.8304    4.9124   -0.9356 H   0  0  0  0  0  0  0  0  0  0  0  0
    4.6978    1.1722    1.5795 H   0  0  0  0  0  0  0  0  0  0  0  0
    1.1568    3.1821    0.0290 H   0  0  0  0  0  0  0  0  0  0  0  0
   -0.9627    1.9312    0.0480 H   0  0  0  0  0  0  0  0  0  0  0  0
   -0.9420   -0.5298    0.0328 H   0  0  0  0  0  0  0  0  0  0  0  0
    1.1968   -1.7467   -0.0112 H   0  0  0  0  0  0  0  0  0  0  0  0
    3.3215   -0.5047   -0.0360 H   0  0  0  0  0  0  0  0  0  0  0  0
    5.6054    2.7571    0.5159 N   0  3  0  0  0  0  0  0  0  0  0  0
    6.5140    2.8046    0.9917 H   0  0  0  0  0  0  0  0  0  0  0  0
  1  2  1  0  0  0  0
  1 18  1  0  0  0  0
  1 19  1  0  0  0  0
  1 20  1  0  0  0  0
  2  3  2  0  0  0  0
  2  4  1  0  0  0  0
  4  9  2  0  0  0  0
  4  5  1  0  0  0  0
  5  6  2  0  0  0  0
  5 21  1  0  0  0  0
  6  7  1  0  0  0  0
  6 22  1  0  0  0  0
  7 11  1  0  0  0  0
  7  8  2  0  0  0  0
  8  9  1  0  0  0  0
  8 30  1  0  0  0  0
  9 23  1  0  0  0  0
 10 11  1  0  0  0  0
 10 24  1  0  0  0  0
 10 30  2  0  0  0  0
 11 12  1  0  0  0  0
 12 17  2  0  0  0  0
 12 13  1  0  0  0  0
 13 14  2  0  0  0  0
 13 25  1  0  0  0  0
 14 15  1  0  0  0  0
 14 26  1  0  0  0  0
 15 16  2  0  0  0  0
 15 27  1  0  0  0  0
 16 17  1  0  0  0  0
 16 28  1  0  0  0  0
 17 29  1  0  0  0  0
 30 31  1  0  0  0  0
M  CHG  1  30   1
M  END
$$$$
ZINC03827478
  -OEChem-08230709403D

 70 74  0     0  0  0  0  0  0999 V2000
    4.3982    4.1130   -0.0333 C   0  0  0  0  0  0  0  0  0  0  0  0
    3.0768    3.3895   -0.0738 C   0  0  0  0  0  0  0  0  0  0  0  0
    3.0000    2.0696    0.3277 C   0  0  0  0  0  0  0  0  0  0  0  0
    1.7895    1.4048    0.2980 C   0  0  0  0  0  0  0  0  0  0  0  0
    0.6469    2.0582   -0.1479 C   0  0  0  0  0  0  0  0  0  0  0  0
    0.7206    3.3833   -0.5521 C   0  0  0  0  0  0  0  0  0  0  0  0
    1.9371    4.0503   -0.5152 C   0  0  0  0  0  0  0  0  0  0  0  0
    2.0158    5.3856   -0.9221 N   0  0  0  0  0  0  0  0  0  0  0  0
    1.0849    5.8941   -1.8133 C   0  0  0  0  0  0  0  0  0  0  0  0
    0.2078    5.0713   -2.3704 N   0  0  0  0  0  0  0  0  0  0  0  0
   -0.6971    5.5183   -3.2264 C   0  0  0  0  0  0  0  0  0  0  0  0
   -0.7238    6.8656   -3.5411 C   0  0  0  0  0  0  0  0  0  0  0  0
    0.2131    7.7087   -2.9381 C   0  0  0  0  0  0  0  0  0  0  0  0
    1.0908    7.1900   -2.0822 N   0  0  0  0  0  0  0  0  0  0  0  0
    0.2253    9.1602   -3.2421 C   0  0  0  0  0  0  0  0  0  0  0  0
    1.1626   10.0045   -2.6391 C   0  0  0  0  0  0  0  0  0  0  0  0
    1.1323   11.3514   -2.9560 C   0  0  0  0  0  0  0  0  0  0  0  0
    0.1846   11.8148   -3.8507 C   0  0  0  0  0  0  0  0  0  0  0  0
   -0.6871   10.9940   -4.4039 N   0  0  0  0  0  0  0  0  0  0  0  0
   -0.6933    9.7039   -4.1376 C   0  0  0  0  0  0  0  0  0  0  0  0
   -0.5769    1.3824   -0.1836 N   0  0  0  0  0  0  0  0  0  0  0  0
   -0.6036    0.0448   -0.3462 C   0  0  0  0  0  0  0  0  0  0  0  0
    0.4281   -0.5627   -0.5565 O   0  0  0  0  0  0  0  0  0  0  0  0
   -1.8875   -0.6837   -0.2686 C   0  0  0  0  0  0  0  0  0  0  0  0
   -3.0733    0.0101   -0.0214 C   0  0  0  0  0  0  0  0  0  0  0  0
   -4.2688   -0.6752    0.0445 C   0  0  0  0  0  0  0  0  0  0  0  0
   -4.2926   -2.0485   -0.1224 C   0  0  0  0  0  0  0  0  0  0  0  0
   -3.1201   -2.7429   -0.3625 C   0  0  0  0  0  0  0  0  0  0  0  0
   -1.9186   -2.0691   -0.4365 C   0  0  0  0  0  0  0  0  0  0  0  0
   -5.6014   -2.7912   -0.0429 C   0  0  0  0  0  0  0  0  0  0  0  0
   -4.8583   -4.1957    1.7848 C   0  0  0  0  0  0  0  0  0  0  0  0
   -5.1004   -4.5371    3.2569 C   0  0  0  0  0  0  0  0  0  0  0  0
   -7.4568   -4.0579    2.9805 C   0  0  0  0  0  0  0  0  0  0  0  0
   -7.2147   -3.7165    1.5083 C   0  0  0  0  0  0  0  0  0  0  0  0
   -6.7137   -5.4624    4.8081 C   0  0  0  0  0  0  0  0  0  0  0  0
    4.5207    4.5917    0.9383 H   0  0  0  0  0  0  0  0  0  0  0  0
    5.2075    3.4003   -0.1918 H   0  0  0  0  0  0  0  0  0  0  0  0
    4.4220    4.8701   -0.8170 H   0  0  0  0  0  0  0  0  0  0  0  0
    3.8874    1.5582    0.6704 H   0  0  0  0  0  0  0  0  0  0  0  0
    1.7319    0.3747    0.6173 H   0  0  0  0  0  0  0  0  0  0  0  0
   -0.1669    3.8948   -0.8945 H   0  0  0  0  0  0  0  0  0  0  0  0
    2.7221    5.9559   -0.5805 H   0  0  0  0  0  0  0  0  0  0  0  0
   -1.4068    4.8388   -3.6748 H   0  0  0  0  0  0  0  0  0  0  0  0
   -1.4517    7.2562   -4.2369 H   0  0  0  0  0  0  0  0  0  0  0  0
    1.8914    9.6155   -1.9434 H   0  0  0  0  0  0  0  0  0  0  0  0
    1.8411   12.0332   -2.5097 H   0  0  0  0  0  0  0  0  0  0  0  0
    0.1584   12.8652   -4.1005 H   0  0  0  0  0  0  0  0  0  0  0  0
   -1.4200    9.0626   -4.6141 H   0  0  0  0  0  0  0  0  0  0  0  0
   -1.4067    1.8769   -0.0954 H   0  0  0  0  0  0  0  0  0  0  0  0
   -3.0554    1.0814    0.1138 H   0  0  0  0  0  0  0  0  0  0  0  0
   -5.1876   -0.1391    0.2309 H   0  0  0  0  0  0  0  0  0  0  0  0
   -3.1457   -3.8147   -0.4926 H   0  0  0  0  0  0  0  0  0  0  0  0
   -1.0042   -2.6122   -0.6243 H   0  0  0  0  0  0  0  0  0  0  0  0
   -6.4092   -2.1408   -0.3782 H   0  0  0  0  0  0  0  0  0  0  0  0
   -5.5574   -3.6743   -0.6804 H   0  0  0  0  0  0  0  0  0  0  0  0
   -4.9568   -5.0980    1.1812 H   0  0  0  0  0  0  0  0  0  0  0  0
   -3.8549   -3.7865    1.6666 H   0  0  0  0  0  0  0  0  0  0  0  0
   -4.9751   -3.6402    3.8636 H   0  0  0  0  0  0  0  0  0  0  0  0
   -4.3858   -5.2954    3.5770 H   0  0  0  0  0  0  0  0  0  0  0  0
   -7.3583   -3.1557    3.5840 H   0  0  0  0  0  0  0  0  0  0  0  0
   -8.4603   -4.4667    3.0987 H   0  0  0  0  0  0  0  0  0  0  0  0
   -7.9293   -2.9581    1.1886 H   0  0  0  0  0  0  0  0  0  0  0  0
   -7.3401   -4.6131    0.9013 H   0  0  0  0  0  0  0  0  0  0  0  0
   -7.7083   -5.9014    4.8861 H   0  0  0  0  0  0  0  0  0  0  0  0
   -5.9672   -6.1981    5.1073 H   0  0  0  0  0  0  0  0  0  0  0  0
   -6.6484   -4.5922    5.4612 H   0  0  0  0  0  0  0  0  0  0  0  0
   -5.8454   -3.1796    1.3627 N   0  3  0  0  0  0  0  0  0  0  0  0
   -5.7469   -2.3502    1.9599 H   0  0  0  0  0  0  0  0  0  0  0  0
   -6.4699   -5.0740    3.4025 N   0  3  0  0  0  0  0  0  0  0  0  0
   -6.5686   -5.9033    2.8053 H   0  0  0  0  0  0  0  0  0  0  0  0
  1  2  1  0  0  0  0
  1 36  1  0  0  0  0
  1 37  1  0  0  0  0
  1 38  1  0  0  0  0
  2  7  2  0  0  0  0
  2  3  1  0  0  0  0
  3  4  2  0  0  0  0
  3 39  1  0  0  0  0
  4  5  1  0  0  0  0
  4 40  1  0  0  0  0
  5  6  2  0  0  0  0
  5 21  1  0  0  0  0
  6  7  1  0  0  0  0
  6 41  1  0  0  0  0
  7  8  1  0  0  0  0
  8  9  1  0  0  0  0
  8 42  1  0  0  0  0
  9 14  2  0  0  0  0
  9 10  1  0  0  0  0
 10 11  2  0  0  0  0
 11 12  1  0  0  0  0
 11 43  1  0  0  0  0
 12 13  2  0  0  0  0
 12 44  1  0  0  0  0
 13 14  1  0  0  0  0
 13 15  1  0  0  0  0
 15 20  2  0  0  0  0
 15 16  1  0  0  0  0
 16 17  2  0  0  0  0
 16 45  1  0  0  0  0
 17 18  1  0  0  0  0
 17 46  1  0  0  0  0
 18 19  2  0  0  0  0
 18 47  1  0  0  0  0
 19 20  1  0  0  0  0
 20 48  1  0  0  0  0
 21 22  1  0  0  0  0
 21 49  1  0  0  0  0
 22 23  2  0  0  0  0
 22 24  1  0  0  0  0
 24 29  2  0  0  0  0
 24 25  1  0  0  0  0
 25 26  2  0  0  0  0
 25 50  1  0  0  0  0
 26 27  1  0  0  0  0
 26 51  1  0  0  0  0
 27 28  2  0  0  0  0
 27 30  1  0  0  0  0
 28 29  1  0  0  0  0
 28 52  1  0  0  0  0
 29 53  1  0  0  0  0
 30 54  1  0  0  0  0
 30 55  1  0  0  0  0
 30 67  1  0  0  0  0
 31 32  1  0  0  0  0
 31 56  1  0  0  0  0
 31 57  1  0  0  0  0
 31 67  1  0  0  0  0
 32 58  1  0  0  0  0
 32 59  1  0  0  0  0
 32 69  1  0  0  0  0
 33 34  1  0  0  0  0
 33 60  1  0  0  0  0
 33 61  1  0  0  0  0
 33 69  1  0  0  0  0
 34 62  1  0  0  0  0
 34 63  1  0  0  0  0
 34 67  1  0  0  0  0
 35 64  1  0  0  0  0
 35 65  1  0  0  0  0
 35 66  1  0  0  0  0
 35 69  1  0  0  0  0
 67 68  1  0  0  0  0
 69 70  1  0  0  0  0
M  CHG  2  67   1  69   1
M  END
$$$$
ZINC03832218
  -OEChem-08230709403D

 30 32  0     0  0  0  0  0  0999 V2000
    2.4924    1.0225   -0.0168 C   0  0  0  0  0  0  0  0  0  0  0  0
    1.1898    1.7801    0.0003 C   0  0  0  0  0  0  0  0  0  0  0  0
   -0.0126    1.0758    0.0080 C   0  0  0  0  0  0  0  0  0  0  0  0
   -1.2054    1.7317    0.0172 C   0  0  0  0  0  0  0  0  0  0  0  0
   -1.2255    3.1366    0.0306 C   0  0  0  0  0  0  0  0  0  0  0  0
   -2.4378    3.8483    0.0460 C   0  0  0  0  0  0  0  0  0  0  0  0
   -2.3790    5.2339    0.0528 C   0  0  0  0  0  0  0  0  0  0  0  0
   -1.1287    5.8733    0.0443 C   0  0  0  0  0  0  0  0  0  0  0  0
   -0.0112    5.1925    0.0296 N   0  0  0  0  0  0  0  0  0  0  0  0
   -0.0037    3.8551    0.0228 C   0  0  0  0  0  0  0  0  0  0  0  0
    1.2072    3.1410    0.0074 C   0  0  0  0  0  0  0  0  0  0  0  0
   -3.6277    6.0346    0.0685 C   0  0  0  0  0  0  0  0  0  0  0  0
   -3.5812    7.4255    0.0755 C   0  0  0  0  0  0  0  0  0  0  0  0
   -4.7407    8.1207    0.0894 C   0  0  0  0  0  0  0  0  0  0  0  0
   -5.9622    6.8194    0.0932 S   0  0  0  0  0  0  0  0  0  0  0  0
   -4.8504    5.4231    0.0707 C   0  0  0  0  0  0  0  0  0  0  0  0
   -2.4971    0.9553    0.0192 C   0  0  0  0  0  0  0  0  0  0  0  0
    2.7965    0.8457   -1.0485 H   0  0  0  0  0  0  0  0  0  0  0  0
    3.2590    1.6062    0.4930 H   0  0  0  0  0  0  0  0  0  0  0  0
    2.3640    0.0676    0.4929 H   0  0  0  0  0  0  0  0  0  0  0  0
    0.0021   -0.0041    0.0020 H   0  0  0  0  0  0  0  0  0  0  0  0
   -3.3862    3.3316    0.0519 H   0  0  0  0  0  0  0  0  0  0  0  0
   -1.0885    6.9526    0.0501 H   0  0  0  0  0  0  0  0  0  0  0  0
    2.1483    3.6707    0.0009 H   0  0  0  0  0  0  0  0  0  0  0  0
   -2.6328    7.9421    0.0696 H   0  0  0  0  0  0  0  0  0  0  0  0
   -4.8898    9.1903    0.0964 H   0  0  0  0  0  0  0  0  0  0  0  0
   -5.0833    4.3686    0.0622 H   0  0  0  0  0  0  0  0  0  0  0  0
   -2.8035    0.7625    1.0473 H   0  0  0  0  0  0  0  0  0  0  0  0
   -3.2694    1.5336   -0.4878 H   0  0  0  0  0  0  0  0  0  0  0  0
   -2.3524    0.0081   -0.5004 H   0  0  0  0  0  0  0  0  0  0  0  0
  1  2  1  0  0  0  0
  1 18  1  0  0  0  0
  1 19  1  0  0  0  0
  1 20  1  0  0  0  0
  2 11  2  0  0  0  0
  2  3  1  0  0  0  0
  3  4  2  0  0  0  0
  3 21  1  0  0  0  0
  4  5  1  0  0  0  0
  4 17  1  0  0  0  0
  5 10  2  0  0  0  0
  5  6  1  0  0  0  0
  6  7  2  0  0  0  0
  6 22  1  0  0  0  0
  7  8  1  0  0  0  0
  7 12  1  0  0  0  0
  8  9  2  0  0  0  0
  8 23  1  0  0  0  0
  9 10  1  0  0  0  0
 10 11  1  0  0  0  0
 11 24  1  0  0  0  0
 12 16  2  0  0  0  0
 12 13  1  0  0  0  0
 13 14  2  0  0  0  0
 13 25  1  0  0  0  0
 14 15  1  0  0  0  0
 14 26  1  0  0  0  0
 15 16  1  0  0  0  0
 16 27  1  0  0  0  0
 17 28  1  0  0  0  0
 17 29  1  0  0  0  0
 17 30  1  0  0  0  0
M  END
$$$$
ZINC03832219
  -OEChem-08230709403D

 51 54  0     0  0  0  0  0  0999 V2000
    5.0885    4.1036   -0.3717 C   0  0  0  0  0  0  0  0  0  0  0  0
    3.7898    3.3396   -0.3986 C   0  0  0  0  0  0  0  0  0  0  0  0
    2.6849    3.8815   -1.0310 C   0  0  0  0  0  0  0  0  0  0  0  0
    1.4931    3.1873   -1.0593 C   0  0  0  0  0  0  0  0  0  0  0  0
    1.4034    1.9356   -0.4480 C   0  0  0  0  0  0  0  0  0  0  0  0
    2.5204    1.3971    0.1929 C   0  0  0  0  0  0  0  0  0  0  0  0
    3.7078    2.0992    0.2089 C   0  0  0  0  0  0  0  0  0  0  0  0
    0.1294    1.1864   -0.4739 C   0  0  0  0  0  0  0  0  0  0  0  0
   -0.8417    1.6580   -1.0328 O   0  0  0  0  0  0  0  0  0  0  0  0
    0.0461   -0.0219    0.1172 N   0  0  0  0  0  0  0  0  0  0  0  0
   -1.1846   -0.6822    0.1882 C   0  0  0  0  0  0  0  0  0  0  0  0
   -2.3665    0.0487    0.1998 C   0  0  0  0  0  0  0  0  0  0  0  0
   -3.5828   -0.6030    0.2636 C   0  0  0  0  0  0  0  0  0  0  0  0
   -3.6283   -1.9825    0.3285 C   0  0  0  0  0  0  0  0  0  0  0  0
   -2.4502   -2.7190    0.3230 C   0  0  0  0  0  0  0  0  0  0  0  0
   -1.2267   -2.0675    0.2528 C   0  0  0  0  0  0  0  0  0  0  0  0
   -2.4971   -4.1148    0.3878 N   0  0  0  0  0  0  0  0  0  0  0  0
   -1.4506   -4.8673   -0.1200 C   0  0  0  0  0  0  0  0  0  0  0  0
   -0.4760   -4.2564   -0.7784 N   0  0  0  0  0  0  0  0  0  0  0  0
    0.5409   -4.9399   -1.2786 C   0  0  0  0  0  0  0  0  0  0  0  0
    0.5825   -6.3127   -1.1089 C   0  0  0  0  0  0  0  0  0  0  0  0
   -0.4589   -6.9289   -0.4105 C   0  0  0  0  0  0  0  0  0  0  0  0
   -1.4471   -6.1772    0.0695 N   0  0  0  0  0  0  0  0  0  0  0  0
   -0.4601   -8.3972   -0.2016 C   0  0  0  0  0  0  0  0  0  0  0  0
   -1.5019   -9.0145    0.4972 C   0  0  0  0  0  0  0  0  0  0  0  0
   -1.4564  -10.3876    0.6652 C   0  0  0  0  0  0  0  0  0  0  0  0
   -0.3917  -11.0984    0.1414 C   0  0  0  0  0  0  0  0  0  0  0  0
    0.5771  -10.4882   -0.5135 N   0  0  0  0  0  0  0  0  0  0  0  0
    0.5741   -9.1846   -0.7035 C   0  0  0  0  0  0  0  0  0  0  0  0
   -4.9573   -2.6891    0.4048 C   0  0  0  0  0  0  0  0  0  0  0  0
    5.1187    4.7377    0.5144 H   0  0  0  0  0  0  0  0  0  0  0  0
    5.9223    3.4021   -0.3451 H   0  0  0  0  0  0  0  0  0  0  0  0
    5.1638    4.7238   -1.2649 H   0  0  0  0  0  0  0  0  0  0  0  0
    2.7556    4.8502   -1.5033 H   0  0  0  0  0  0  0  0  0  0  0  0
    0.6314    3.6113   -1.5536 H   0  0  0  0  0  0  0  0  0  0  0  0
    2.4564    0.4310    0.6716 H   0  0  0  0  0  0  0  0  0  0  0  0
    4.5742    1.6815    0.7002 H   0  0  0  0  0  0  0  0  0  0  0  0
    0.8398   -0.4335    0.4935 H   0  0  0  0  0  0  0  0  0  0  0  0
   -2.3342    1.1272    0.1544 H   0  0  0  0  0  0  0  0  0  0  0  0
   -4.5000   -0.0329    0.2680 H   0  0  0  0  0  0  0  0  0  0  0  0
   -0.3095   -2.6376    0.2487 H   0  0  0  0  0  0  0  0  0  0  0  0
   -3.2623   -4.5563    0.7883 H   0  0  0  0  0  0  0  0  0  0  0  0
    1.3295   -4.4318   -1.8137 H   0  0  0  0  0  0  0  0  0  0  0  0
    1.4008   -6.8941   -1.5074 H   0  0  0  0  0  0  0  0  0  0  0  0
   -2.3212   -8.4347    0.8960 H   0  0  0  0  0  0  0  0  0  0  0  0
   -2.2439  -10.8985    1.1993 H   0  0  0  0  0  0  0  0  0  0  0  0
   -0.3531  -12.1700    0.2704 H   0  0  0  0  0  0  0  0  0  0  0  0
    1.3830   -8.7214   -1.2490 H   0  0  0  0  0  0  0  0  0  0  0  0
   -5.2436   -2.8126    1.4492 H   0  0  0  0  0  0  0  0  0  0  0  0
   -5.7133   -2.0977   -0.1117 H   0  0  0  0  0  0  0  0  0  0  0  0
   -4.8760   -3.6679   -0.0679 H   0  0  0  0  0  0  0  0  0  0  0  0
  1  2  1  0  0  0  0
  1 31  1  0  0  0  0
  1 32  1  0  0  0  0
  1 33  1  0  0  0  0
  2  7  2  0  0  0  0
  2  3  1  0  0  0  0
  3  4  2  0  0  0  0
  3 34  1  0  0  0  0
  4  5  1  0  0  0  0
  4 35  1  0  0  0  0
  5  6  2  0  0  0  0
  5  8  1  0  0  0  0
  6  7  1  0  0  0  0
  6 36  1  0  0  0  0
  7 37  1  0  0  0  0
  8  9  2  0  0  0  0
  8 10  1  0  0  0  0
 10 11  1  0  0  0  0
 10 38  1  0  0  0  0
 11 16  2  0  0  0  0
 11 12  1  0  0  0  0
 12 13  2  0  0  0  0
 12 39  1  0  0  0  0
 13 14  1  0  0  0  0
 13 40  1  0  0  0  0
 14 15  2  0  0  0  0
 14 30  1  0  0  0  0
 15 16  1  0  0  0  0
 15 17  1  0  0  0  0
 16 41  1  0  0  0  0
 17 18  1  0  0  0  0
 17 42  1  0  0  0  0
 18 23  2  0  0  0  0
 18 19  1  0  0  0  0
 19 20  2  0  0  0  0
 20 21  1  0  0  0  0
 20 43  1  0  0  0  0
 21 22  2  0  0  0  0
 21 44  1  0  0  0  0
 22 23  1  0  0  0  0
 22 24  1  0  0  0  0
 24 29  2  0  0  0  0
 24 25  1  0  0  0  0
 25 26  2  0  0  0  0
 25 45  1  0  0  0  0
 26 27  1  0  0  0  0
 26 46  1  0  0  0  0
 27 28  2  0  0  0  0
 27 47  1  0  0  0  0
 28 29  1  0  0  0  0
 29 48  1  0  0  0  0
 30 49  1  0  0  0  0
 30 50  1  0  0  0  0
 30 51  1  0  0  0  0
M  END
$$$$
ZINC03832221
  -OEChem-08230709403D

 48 51  0     0  0  0  0  0  0999 V2000
    4.4023    4.1060    0.0310 C   0  0  0  0  0  0  0  0  0  0  0  0
    3.0724    3.3972    0.0236 C   0  0  0  0  0  0  0  0  0  0  0  0
    3.0196    2.0309   -0.1758 C   0  0  0  0  0  0  0  0  0  0  0  0
    1.8030    1.3766   -0.1776 C   0  0  0  0  0  0  0  0  0  0  0  0
    0.6269    2.0927    0.0097 C   0  0  0  0  0  0  0  0  0  0  0  0
    0.6763    3.4647    0.2097 C   0  0  0  0  0  0  0  0  0  0  0  0
    1.9006    4.1183    0.2167 C   0  0  0  0  0  0  0  0  0  0  0  0
    1.9548    5.5008    0.4175 N   0  0  0  0  0  0  0  0  0  0  0  0
    0.8605    6.2899    0.1023 C   0  0  0  0  0  0  0  0  0  0  0  0
   -0.1783    5.7388   -0.5091 N   0  0  0  0  0  0  0  0  0  0  0  0
   -1.2424    6.4586   -0.8265 C   0  0  0  0  0  0  0  0  0  0  0  0
   -1.2660    7.8064   -0.5133 C   0  0  0  0  0  0  0  0  0  0  0  0
   -0.1565    8.3594    0.1311 C   0  0  0  0  0  0  0  0  0  0  0  0
    0.8772    7.5736    0.4243 N   0  0  0  0  0  0  0  0  0  0  0  0
   -0.1332    9.7986    0.4884 C   0  0  0  0  0  0  0  0  0  0  0  0
    0.9767   10.3527    1.1332 C   0  0  0  0  0  0  0  0  0  0  0  0
    0.9493   11.7010    1.4448 C   0  0  0  0  0  0  0  0  0  0  0  0
   -0.1647   12.4500    1.1113 C   0  0  0  0  0  0  0  0  0  0  0  0
   -1.1971   11.8994    0.5025 N   0  0  0  0  0  0  0  0  0  0  0  0
   -1.2148   10.6218    0.1817 C   0  0  0  0  0  0  0  0  0  0  0  0
   -0.6047    1.4302    0.0024 N   0  0  0  0  0  0  0  0  0  0  0  0
   -0.7542    0.2934   -0.7058 C   0  0  0  0  0  0  0  0  0  0  0  0
    0.1504   -0.1053   -1.4135 O   0  0  0  0  0  0  0  0  0  0  0  0
   -2.0175   -0.4684   -0.6223 C   0  0  0  0  0  0  0  0  0  0  0  0
   -3.0560   -0.0160    0.1940 C   0  0  0  0  0  0  0  0  0  0  0  0
   -4.2346   -0.7284    0.2638 C   0  0  0  0  0  0  0  0  0  0  0  0
   -4.3853   -1.8965   -0.4653 C   0  0  0  0  0  0  0  0  0  0  0  0
   -3.3565   -2.3533   -1.2725 C   0  0  0  0  0  0  0  0  0  0  0  0
   -2.1753   -1.6465   -1.3549 C   0  0  0  0  0  0  0  0  0  0  0  0
   -5.8698   -2.7912   -0.3676 Cl  0  0  0  0  0  0  0  0  0  0  0  0
    4.7974    4.1264    1.0466 H   0  0  0  0  0  0  0  0  0  0  0  0
    5.0993    3.5776   -0.6195 H   0  0  0  0  0  0  0  0  0  0  0  0
    4.2720    5.1266   -0.3288 H   0  0  0  0  0  0  0  0  0  0  0  0
    3.9319    1.4726   -0.3257 H   0  0  0  0  0  0  0  0  0  0  0  0
    1.7656    0.3079   -0.3289 H   0  0  0  0  0  0  0  0  0  0  0  0
   -0.2360    4.0228    0.3600 H   0  0  0  0  0  0  0  0  0  0  0  0
    2.7584    5.9076    0.7774 H   0  0  0  0  0  0  0  0  0  0  0  0
   -2.0833    5.9993   -1.3249 H   0  0  0  0  0  0  0  0  0  0  0  0
   -2.1219    8.4165   -0.7615 H   0  0  0  0  0  0  0  0  0  0  0  0
    1.8334    9.7441    1.3822 H   0  0  0  0  0  0  0  0  0  0  0  0
    1.7889   12.1633    1.9425 H   0  0  0  0  0  0  0  0  0  0  0  0
   -0.1894   13.5024    1.3529 H   0  0  0  0  0  0  0  0  0  0  0  0
   -2.0768   10.2080   -0.3203 H   0  0  0  0  0  0  0  0  0  0  0  0
   -1.3525    1.7911    0.5039 H   0  0  0  0  0  0  0  0  0  0  0  0
   -2.9380    0.8922    0.7664 H   0  0  0  0  0  0  0  0  0  0  0  0
   -5.0403   -0.3772    0.8914 H   0  0  0  0  0  0  0  0  0  0  0  0
   -3.4798   -3.2647   -1.8387 H   0  0  0  0  0  0  0  0  0  0  0  0
   -1.3741   -2.0033   -1.9851 H   0  0  0  0  0  0  0  0  0  0  0  0
  1  2  1  0  0  0  0
  1 31  1  0  0  0  0
  1 32  1  0  0  0  0
  1 33  1  0  0  0  0
  2  7  2  0  0  0  0
  2  3  1  0  0  0  0
  3  4  2  0  0  0  0
  3 34  1  0  0  0  0
  4  5  1  0  0  0  0
  4 35  1  0  0  0  0
  5  6  2  0  0  0  0
  5 21  1  0  0  0  0
  6  7  1  0  0  0  0
  6 36  1  0  0  0  0
  7  8  1  0  0  0  0
  8  9  1  0  0  0  0
  8 37  1  0  0  0  0
  9 14  2  0  0  0  0
  9 10  1  0  0  0  0
 10 11  2  0  0  0  0
 11 12  1  0  0  0  0
 11 38  1  0  0  0  0
 12 13  2  0  0  0  0
 12 39  1  0  0  0  0
 13 14  1  0  0  0  0
 13 15  1  0  0  0  0
 15 20  2  0  0  0  0
 15 16  1  0  0  0  0
 16 17  2  0  0  0  0
 16 40  1  0  0  0  0
 17 18  1  0  0  0  0
 17 41  1  0  0  0  0
 18 19  2  0  0  0  0
 18 42  1  0  0  0  0
 19 20  1  0  0  0  0
 20 43  1  0  0  0  0
 21 22  1  0  0  0  0
 21 44  1  0  0  0  0
 22 23  2  0  0  0  0
 22 24  1  0  0  0  0
 24 29  2  0  0  0  0
 24 25  1  0  0  0  0
 25 26  2  0  0  0  0
 25 45  1  0  0  0  0
 26 27  1  0  0  0  0
 26 46  1  0  0  0  0
 27 28  2  0  0  0  0
 27 30  1  0  0  0  0
 28 29  1  0  0  0  0
 28 47  1  0  0  0  0
 29 48  1  0  0  0  0
M  END
$$$$
ZINC03832225
  -OEChem-08230709403D

 54 58  0     0  0  0  0  0  0999 V2000
    4.9014   -3.9973    0.1390 C   0  0  0  0  0  0  0  0  0  0  0  0
    3.5916   -4.7425    0.1406 C   0  0  0  0  0  0  0  0  0  0  0  0
    3.5793   -6.1163    0.2892 C   0  0  0  0  0  0  0  0  0  0  0  0
    2.3812   -6.8038    0.2850 C   0  0  0  0  0  0  0  0  0  0  0  0
    1.1834   -6.1147    0.1370 C   0  0  0  0  0  0  0  0  0  0  0  0
    1.1919   -4.7348   -0.0066 C   0  0  0  0  0  0  0  0  0  0  0  0
    2.3973   -4.0471   -0.0020 C   0  0  0  0  0  0  0  0  0  0  0  0
    2.4102   -2.6565   -0.1464 N   0  0  0  0  0  0  0  0  0  0  0  0
    1.3626   -2.0170   -0.7891 C   0  0  0  0  0  0  0  0  0  0  0  0
    0.4237   -2.7458   -1.3754 N   0  0  0  0  0  0  0  0  0  0  0  0
   -0.5929   -2.1727   -1.9995 C   0  0  0  0  0  0  0  0  0  0  0  0
   -0.6722   -0.7916   -2.0375 C   0  0  0  0  0  0  0  0  0  0  0  0
    0.3322   -0.0498   -1.4105 C   0  0  0  0  0  0  0  0  0  0  0  0
    1.3279   -0.6941   -0.8060 N   0  0  0  0  0  0  0  0  0  0  0  0
    0.2928    1.4327   -1.4237 C   0  0  0  0  0  0  0  0  0  0  0  0
    1.2976    2.1756   -0.7965 C   0  0  0  0  0  0  0  0  0  0  0  0
    1.2153    3.5566   -0.8376 C   0  0  0  0  0  0  0  0  0  0  0  0
    0.1517    4.1519   -1.4915 C   0  0  0  0  0  0  0  0  0  0  0  0
   -0.7813    3.4245   -2.0747 N   0  0  0  0  0  0  0  0  0  0  0  0
   -0.7429    2.1078   -2.0662 C   0  0  0  0  0  0  0  0  0  0  0  0
   -0.0290   -6.8116    0.1324 N   0  0  0  0  0  0  0  0  0  0  0  0
   -0.0686   -8.0923   -0.2855 C   0  0  0  0  0  0  0  0  0  0  0  0
    0.9287   -8.6121   -0.7473 O   0  0  0  0  0  0  0  0  0  0  0  0
   -1.3239   -8.8645   -0.1823 C   0  0  0  0  0  0  0  0  0  0  0  0
   -2.4730   -8.2596    0.3583 C   0  0  0  0  0  0  0  0  0  0  0  0
   -3.6394   -8.9465    0.4580 C   0  0  0  0  0  0  0  0  0  0  0  0
   -3.7072  -10.2848    0.0289 C   0  0  0  0  0  0  0  0  0  0  0  0
   -4.9014  -11.0178    0.1286 C   0  0  0  0  0  0  0  0  0  0  0  0
   -4.9367  -12.3114   -0.2944 C   0  0  0  0  0  0  0  0  0  0  0  0
   -3.8037  -12.9238   -0.8268 C   0  0  0  0  0  0  0  0  0  0  0  0
   -2.6290  -12.2460   -0.9388 C   0  0  0  0  0  0  0  0  0  0  0  0
   -2.5541  -10.9078   -0.5124 C   0  0  0  0  0  0  0  0  0  0  0  0
   -1.3587  -10.1803   -0.6133 C   0  0  0  0  0  0  0  0  0  0  0  0
    5.1577   -3.7107    1.1590 H   0  0  0  0  0  0  0  0  0  0  0  0
    5.6841   -4.6391   -0.2655 H   0  0  0  0  0  0  0  0  0  0  0  0
    4.8100   -3.1031   -0.4775 H   0  0  0  0  0  0  0  0  0  0  0  0
    4.5088   -6.6541    0.4040 H   0  0  0  0  0  0  0  0  0  0  0  0
    2.3753   -7.8779    0.3972 H   0  0  0  0  0  0  0  0  0  0  0  0
    0.2624   -4.1971   -0.1221 H   0  0  0  0  0  0  0  0  0  0  0  0
    3.1527   -2.1394    0.2033 H   0  0  0  0  0  0  0  0  0  0  0  0
   -1.3527   -2.7763   -2.4736 H   0  0  0  0  0  0  0  0  0  0  0  0
   -1.4915   -0.2987   -2.5397 H   0  0  0  0  0  0  0  0  0  0  0  0
    2.1168    1.6844   -0.2926 H   0  0  0  0  0  0  0  0  0  0  0  0
    1.9736    4.1629   -0.3644 H   0  0  0  0  0  0  0  0  0  0  0  0
    0.0844    5.2293   -1.5255 H   0  0  0  0  0  0  0  0  0  0  0  0
   -1.5233    1.5465   -2.5585 H   0  0  0  0  0  0  0  0  0  0  0  0
   -0.8415   -6.3732    0.4300 H   0  0  0  0  0  0  0  0  0  0  0  0
   -2.4279   -7.2341    0.6939 H   0  0  0  0  0  0  0  0  0  0  0  0
   -4.5144   -8.4671    0.8715 H   0  0  0  0  0  0  0  0  0  0  0  0
   -5.7879  -10.5571    0.5389 H   0  0  0  0  0  0  0  0  0  0  0  0
   -5.8567  -12.8716   -0.2158 H   0  0  0  0  0  0  0  0  0  0  0  0
   -3.8587  -13.9513   -1.1549 H   0  0  0  0  0  0  0  0  0  0  0  0
   -1.7585  -12.7333   -1.3527 H   0  0  0  0  0  0  0  0  0  0  0  0
   -0.4729  -10.6426   -1.0234 H   0  0  0  0  0  0  0  0  0  0  0  0
  1  2  1  0  0  0  0
  1 34  1  0  0  0  0
  1 35  1  0  0  0  0
  1 36  1  0  0  0  0
  2  7  2  0  0  0  0
  2  3  1  0  0  0  0
  3  4  2  0  0  0  0
  3 37  1  0  0  0  0
  4  5  1  0  0  0  0
  4 38  1  0  0  0  0
  5  6  2  0  0  0  0
  5 21  1  0  0  0  0
  6  7  1  0  0  0  0
  6 39  1  0  0  0  0
  7  8  1  0  0  0  0
  8  9  1  0  0  0  0
  8 40  1  0  0  0  0
  9 14  2  0  0  0  0
  9 10  1  0  0  0  0
 10 11  2  0  0  0  0
 11 12  1  0  0  0  0
 11 41  1  0  0  0  0
 12 13  2  0  0  0  0
 12 42  1  0  0  0  0
 13 14  1  0  0  0  0
 13 15  1  0  0  0  0
 15 20  2  0  0  0  0
 15 16  1  0  0  0  0
 16 17  2  0  0  0  0
 16 43  1  0  0  0  0
 17 18  1  0  0  0  0
 17 44  1  0  0  0  0
 18 19  2  0  0  0  0
 18 45  1  0  0  0  0
 19 20  1  0  0  0  0
 20 46  1  0  0  0  0
 21 22  1  0  0  0  0
 21 47  1  0  0  0  0
 22 23  2  0  0  0  0
 22 24  1  0  0  0  0
 24 33  2  0  0  0  0
 24 25  1  0  0  0  0
 25 26  2  0  0  0  0
 25 48  1  0  0  0  0
 26 27  1  0  0  0  0
 26 49  1  0  0  0  0
 27 32  2  0  0  0  0
 27 28  1  0  0  0  0
 28 29  2  0  0  0  0
 28 50  1  0  0  0  0
 29 30  1  0  0  0  0
 29 51  1  0  0  0  0
 30 31  2  0  0  0  0
 30 52  1  0  0  0  0
 31 32  1  0  0  0  0
 31 53  1  0  0  0  0
 32 33  1  0  0  0  0
 33 54  1  0  0  0  0
M  END
$$$$
ZINC03832227
  -OEChem-08230709403D

 54 58  0     0  0  0  0  0  0999 V2000
   -8.7060    5.6281   -0.3189 C   0  0  0  0  0  0  0  0  0  0  0  0
   -7.3933    4.9039   -0.1653 C   0  0  0  0  0  0  0  0  0  0  0  0
   -6.2140    5.6205   -0.0948 C   0  0  0  0  0  0  0  0  0  0  0  0
   -5.0092    4.9609    0.0522 C   0  0  0  0  0  0  0  0  0  0  0  0
   -4.9787    3.5730    0.1182 C   0  0  0  0  0  0  0  0  0  0  0  0
   -6.1610    2.8505    0.0477 C   0  0  0  0  0  0  0  0  0  0  0  0
   -7.3703    3.5166   -0.0942 C   0  0  0  0  0  0  0  0  0  0  0  0
   -8.5640    2.7923   -0.1660 N   0  0  0  0  0  0  0  0  0  0  0  0
   -8.5839    1.5484   -0.7758 C   0  0  0  0  0  0  0  0  0  0  0  0
   -7.4601    1.0580   -1.2791 N   0  0  0  0  0  0  0  0  0  0  0  0
   -7.4378   -0.1265   -1.8688 C   0  0  0  0  0  0  0  0  0  0  0  0
   -8.6078   -0.8600   -1.9588 C   0  0  0  0  0  0  0  0  0  0  0  0
   -9.7767   -0.3174   -1.4191 C   0  0  0  0  0  0  0  0  0  0  0  0
   -9.7235    0.8780   -0.8359 N   0  0  0  0  0  0  0  0  0  0  0  0
  -11.0560   -1.0644   -1.4897 C   0  0  0  0  0  0  0  0  0  0  0  0
  -12.2262   -0.5220   -0.9500 C   0  0  0  0  0  0  0  0  0  0  0  0
  -13.3941   -1.2589   -1.0414 C   0  0  0  0  0  0  0  0  0  0  0  0
  -13.3666   -2.4967   -1.6581 C   0  0  0  0  0  0  0  0  0  0  0  0
  -12.2471   -2.9826   -2.1583 N   0  0  0  0  0  0  0  0  0  0  0  0
  -11.1125   -2.3156   -2.1002 C   0  0  0  0  0  0  0  0  0  0  0  0
   -3.7581    2.9058    0.2611 N   0  0  0  0  0  0  0  0  0  0  0  0
   -2.6607    3.3654   -0.3721 C   0  0  0  0  0  0  0  0  0  0  0  0
   -2.7114    4.4064   -0.9987 O   0  0  0  0  0  0  0  0  0  0  0  0
   -1.3988    2.6060   -0.3051 C   0  0  0  0  0  0  0  0  0  0  0  0
   -1.3002    1.4785    0.4972 C   0  0  0  0  0  0  0  0  0  0  0  0
   -0.1123    0.7622    0.5689 C   0  0  0  0  0  0  0  0  0  0  0  0
    0.9821    1.1369   -0.1518 C   0  0  0  0  0  0  0  0  0  0  0  0
    0.9259    2.2690   -0.9828 C   0  0  0  0  0  0  0  0  0  0  0  0
   -0.2744    3.0158   -1.0649 C   0  0  0  0  0  0  0  0  0  0  0  0
   -0.3293    4.1439   -1.8945 C   0  0  0  0  0  0  0  0  0  0  0  0
    0.7710    4.5091   -2.6105 C   0  0  0  0  0  0  0  0  0  0  0  0
    1.9528    3.7760   -2.5313 C   0  0  0  0  0  0  0  0  0  0  0  0
    2.0414    2.6746   -1.7361 C   0  0  0  0  0  0  0  0  0  0  0  0
   -9.1140    5.8535    0.6664 H   0  0  0  0  0  0  0  0  0  0  0  0
   -8.5468    6.5565   -0.8673 H   0  0  0  0  0  0  0  0  0  0  0  0
   -9.4066    4.9980   -0.8668 H   0  0  0  0  0  0  0  0  0  0  0  0
   -6.2346    6.6989   -0.1503 H   0  0  0  0  0  0  0  0  0  0  0  0
   -4.0896    5.5241    0.1114 H   0  0  0  0  0  0  0  0  0  0  0  0
   -6.1404    1.7722    0.1036 H   0  0  0  0  0  0  0  0  0  0  0  0
   -9.3783    3.1606    0.2111 H   0  0  0  0  0  0  0  0  0  0  0  0
   -6.5165   -0.5163   -2.2758 H   0  0  0  0  0  0  0  0  0  0  0  0
   -8.6171   -1.8292   -2.4353 H   0  0  0  0  0  0  0  0  0  0  0  0
  -12.2188    0.4472   -0.4734 H   0  0  0  0  0  0  0  0  0  0  0  0
  -14.3171   -0.8715   -0.6360 H   0  0  0  0  0  0  0  0  0  0  0  0
  -14.2763   -3.0743   -1.7316 H   0  0  0  0  0  0  0  0  0  0  0  0
  -10.2171   -2.7446   -2.5252 H   0  0  0  0  0  0  0  0  0  0  0  0
   -3.7013    2.1122    0.8160 H   0  0  0  0  0  0  0  0  0  0  0  0
   -2.1541    1.1571    1.0751 H   0  0  0  0  0  0  0  0  0  0  0  0
   -0.0562   -0.1097    1.2037 H   0  0  0  0  0  0  0  0  0  0  0  0
    1.8942    0.5624   -0.0846 H   0  0  0  0  0  0  0  0  0  0  0  0
   -1.2393    4.7211   -1.9659 H   0  0  0  0  0  0  0  0  0  0  0  0
    0.7260    5.3792   -3.2488 H   0  0  0  0  0  0  0  0  0  0  0  0
    2.8109    4.0855   -3.1094 H   0  0  0  0  0  0  0  0  0  0  0  0
    2.9638    2.1152   -1.6844 H   0  0  0  0  0  0  0  0  0  0  0  0
  1  2  1  0  0  0  0
  1 34  1  0  0  0  0
  1 35  1  0  0  0  0
  1 36  1  0  0  0  0
  2  7  2  0  0  0  0
  2  3  1  0  0  0  0
  3  4  2  0  0  0  0
  3 37  1  0  0  0  0
  4  5  1  0  0  0  0
  4 38  1  0  0  0  0
  5  6  2  0  0  0  0
  5 21  1  0  0  0  0
  6  7  1  0  0  0  0
  6 39  1  0  0  0  0
  7  8  1  0  0  0  0
  8  9  1  0  0  0  0
  8 40  1  0  0  0  0
  9 14  2  0  0  0  0
  9 10  1  0  0  0  0
 10 11  2  0  0  0  0
 11 12  1  0  0  0  0
 11 41  1  0  0  0  0
 12 13  2  0  0  0  0
 12 42  1  0  0  0  0
 13 14  1  0  0  0  0
 13 15  1  0  0  0  0
 15 20  2  0  0  0  0
 15 16  1  0  0  0  0
 16 17  2  0  0  0  0
 16 43  1  0  0  0  0
 17 18  1  0  0  0  0
 17 44  1  0  0  0  0
 18 19  2  0  0  0  0
 18 45  1  0  0  0  0
 19 20  1  0  0  0  0
 20 46  1  0  0  0  0
 21 22  1  0  0  0  0
 21 47  1  0  0  0  0
 22 23  2  0  0  0  0
 22 24  1  0  0  0  0
 24 29  2  0  0  0  0
 24 25  1  0  0  0  0
 25 26  2  0  0  0  0
 25 48  1  0  0  0  0
 26 27  1  0  0  0  0
 26 49  1  0  0  0  0
 27 28  2  0  0  0  0
 27 50  1  0  0  0  0
 28 33  1  0  0  0  0
 28 29  1  0  0  0  0
 29 30  1  0  0  0  0
 30 31  2  0  0  0  0
 30 51  1  0  0  0  0
 31 32  1  0  0  0  0
 31 52  1  0  0  0  0
 32 33  2  0  0  0  0
 32 53  1  0  0  0  0
 33 54  1  0  0  0  0
M  END
$$$$
ZINC03832228
  -OEChem-08230709403D

 43 45  0     0  0  0  0  0  0999 V2000
   -8.4853   -2.5147    0.0293 C   0  0  0  0  0  0  0  0  0  0  0  0
   -7.2703   -3.2668    0.0194 O   0  0  0  0  0  0  0  0  0  0  0  0
   -6.1087   -2.5621    0.0173 C   0  0  0  0  0  0  0  0  0  0  0  0
   -4.8923   -3.2326    0.0078 C   0  0  0  0  0  0  0  0  0  0  0  0
   -3.7115   -2.5223    0.0061 C   0  0  0  0  0  0  0  0  0  0  0  0
   -3.7392   -1.1247    0.0138 C   0  0  0  0  0  0  0  0  0  0  0  0
   -4.9659   -0.4545    0.0292 C   0  0  0  0  0  0  0  0  0  0  0  0
   -6.1414   -1.1735    0.0250 C   0  0  0  0  0  0  0  0  0  0  0  0
   -2.4796   -0.3606    0.0120 C   0  0  0  0  0  0  0  0  0  0  0  0
   -2.5087    0.9824    0.0194 C   0  0  0  0  0  0  0  0  0  0  0  0
   -1.2492    1.7464    0.0176 C   0  0  0  0  0  0  0  0  0  0  0  0
   -1.2723    3.1385    0.0316 C   0  0  0  0  0  0  0  0  0  0  0  0
   -0.0439    3.8178    0.0231 C   0  0  0  0  0  0  0  0  0  0  0  0
    0.0090    5.2230    0.0293 C   0  0  0  0  0  0  0  0  0  0  0  0
    1.2186    5.8530    0.0206 C   0  0  0  0  0  0  0  0  0  0  0  0
    2.4111    5.1130    0.0056 C   0  0  0  0  0  0  0  0  0  0  0  0
    2.3897    3.7485   -0.0012 C   0  0  0  0  0  0  0  0  0  0  0  0
    1.1606    3.0680    0.0075 C   0  0  0  0  0  0  0  0  0  0  0  0
    1.1202    1.7306    0.0007 N   0  0  0  0  0  0  0  0  0  0  0  0
   -0.0126    1.0758    0.0080 C   0  0  0  0  0  0  0  0  0  0  0  0
    3.6036    5.7643   -0.0028 O   0  0  0  0  0  0  0  0  0  0  0  0
    4.7832    4.9578   -0.0186 C   0  0  0  0  0  0  0  0  0  0  0  0
    1.2699    7.2115    0.0271 O   0  0  0  0  0  0  0  0  0  0  0  0
    0.0220    7.9077    0.0425 C   0  0  0  0  0  0  0  0  0  0  0  0
   -8.5194   -1.8911    0.9226 H   0  0  0  0  0  0  0  0  0  0  0  0
   -8.5282   -1.8820   -0.8573 H   0  0  0  0  0  0  0  0  0  0  0  0
   -9.3351   -3.1972    0.0300 H   0  0  0  0  0  0  0  0  0  0  0  0
   -4.8719   -4.3124    0.0015 H   0  0  0  0  0  0  0  0  0  0  0  0
   -2.7662   -3.0445   -0.0009 H   0  0  0  0  0  0  0  0  0  0  0  0
   -4.9922    0.6251    0.0397 H   0  0  0  0  0  0  0  0  0  0  0  0
   -7.0896   -0.6566    0.0327 H   0  0  0  0  0  0  0  0  0  0  0  0
   -1.5328   -0.8802    0.0046 H   0  0  0  0  0  0  0  0  0  0  0  0
   -3.4555    1.5019    0.0268 H   0  0  0  0  0  0  0  0  0  0  0  0
   -2.2071    3.6793    0.0434 H   0  0  0  0  0  0  0  0  0  0  0  0
   -0.9036    5.8005    0.0412 H   0  0  0  0  0  0  0  0  0  0  0  0
    3.3157    3.1928   -0.0135 H   0  0  0  0  0  0  0  0  0  0  0  0
    0.0021   -0.0041    0.0020 H   0  0  0  0  0  0  0  0  0  0  0  0
    4.8018    4.3240    0.8680 H   0  0  0  0  0  0  0  0  0  0  0  0
    4.7843    4.3331   -0.9118 H   0  0  0  0  0  0  0  0  0  0  0  0
    5.6631    5.6011   -0.0240 H   0  0  0  0  0  0  0  0  0  0  0  0
   -0.5372    7.6314    0.9364 H   0  0  0  0  0  0  0  0  0  0  0  0
    0.2055    8.9821    0.0463 H   0  0  0  0  0  0  0  0  0  0  0  0
   -0.5540    7.6406   -0.8435 H   0  0  0  0  0  0  0  0  0  0  0  0
  1  2  1  0  0  0  0
  1 25  1  0  0  0  0
  1 26  1  0  0  0  0
  1 27  1  0  0  0  0
  2  3  1  0  0  0  0
  3  8  2  0  0  0  0
  3  4  1  0  0  0  0
  4  5  2  0  0  0  0
  4 28  1  0  0  0  0
  5  6  1  0  0  0  0
  5 29  1  0  0  0  0
  6  7  2  0  0  0  0
  6  9  1  0  0  0  0
  7  8  1  0  0  0  0
  7 30  1  0  0  0  0
  8 31  1  0  0  0  0
  9 10  2  0  0  0  0
  9 32  1  0  0  0  0
 10 11  1  0  0  0  0
 10 33  1  0  0  0  0
 11 20  2  0  0  0  0
 11 12  1  0  0  0  0
 12 13  2  0  0  0  0
 12 34  1  0  0  0  0
 13 18  1  0  0  0  0
 13 14  1  0  0  0  0
 14 15  2  0  0  0  0
 14 35  1  0  0  0  0
 15 16  1  0  0  0  0
 15 23  1  0  0  0  0
 16 17  2  0  0  0  0
 16 21  1  0  0  0  0
 17 18  1  0  0  0  0
 17 36  1  0  0  0  0
 18 19  2  0  0  0  0
 19 20  1  0  0  0  0
 20 37  1  0  0  0  0
 21 22  1  0  0  0  0
 22 38  1  0  0  0  0
 22 39  1  0  0  0  0
 22 40  1  0  0  0  0
 23 24  1  0  0  0  0
 24 41  1  0  0  0  0
 24 42  1  0  0  0  0
 24 43  1  0  0  0  0
M  END
$$$$
ZINC03832229
  -OEChem-08230709403D

 57 60  0     0  0  0  0  0  0999 V2000
    4.9967   -2.4487   -3.0291 C   0  0  0  0  0  0  0  0  0  0  0  0
    4.5995   -2.7552   -1.5837 C   0  0  0  0  0  0  0  0  0  0  0  0
    2.3738   -3.5757   -2.0690 C   0  0  0  0  0  0  0  0  0  0  0  0
    0.9495   -3.0728   -2.3127 C   0  0  0  0  0  0  0  0  0  0  0  0
    2.8094   -2.4152    0.0109 C   0  0  0  0  0  0  0  0  0  0  0  0
    1.6120   -1.6478    0.1503 O   0  0  0  0  0  0  0  0  0  0  0  0
    1.7253   -0.2985    0.0243 C   0  0  0  0  0  0  0  0  0  0  0  0
    0.5910    0.4990    0.0637 C   0  0  0  0  0  0  0  0  0  0  0  0
    0.7052    1.8692   -0.0647 C   0  0  0  0  0  0  0  0  0  0  0  0
    1.9559    2.4487   -0.2332 C   0  0  0  0  0  0  0  0  0  0  0  0
    3.0909    1.6496   -0.2720 C   0  0  0  0  0  0  0  0  0  0  0  0
    2.9750    0.2795   -0.1439 C   0  0  0  0  0  0  0  0  0  0  0  0
    2.0725    3.8379   -0.3629 N   0  0  0  0  0  0  0  0  0  0  0  0
    1.2028    4.6707    0.3151 C   0  0  0  0  0  0  0  0  0  0  0  0
    0.3027    4.1299    1.1292 N   0  0  0  0  0  0  0  0  0  0  0  0
   -0.5504    4.8810    1.8000 C   0  0  0  0  0  0  0  0  0  0  0  0
   -0.4908    6.2733    1.6381 C   0  0  0  0  0  0  0  0  0  0  0  0
   -1.3779    7.1303    2.3303 C   0  0  0  0  0  0  0  0  0  0  0  0
   -1.2798    8.4815    2.1386 C   0  0  0  0  0  0  0  0  0  0  0  0
   -0.2623    9.0064    1.2252 C   0  0  0  0  0  0  0  0  0  0  0  0
   -0.1684   10.2080    1.0485 O   0  0  0  0  0  0  0  0  0  0  0  0
    0.5700    8.1672    0.5792 N   0  0  0  0  0  0  0  0  0  0  0  0
    0.4788    6.8105    0.7648 C   0  0  0  0  0  0  0  0  0  0  0  0
    1.3004    5.9786    0.1340 N   0  0  0  0  0  0  0  0  0  0  0  0
    1.5824    8.7080   -0.3311 C   0  0  0  0  0  0  0  0  0  0  0  0
   -2.1957    9.4060    2.8487 C   0  0  0  0  0  0  0  0  0  0  0  0
   -3.5629    9.3939    2.5878 C   0  0  0  0  0  0  0  0  0  0  0  0
   -4.3666   10.2491    3.2592 C   0  0  0  0  0  0  0  0  0  0  0  0
   -3.2063   11.1271    4.2925 S   0  0  0  0  0  0  0  0  0  0  0  0
   -1.7160   10.2944    3.7712 C   0  0  0  0  0  0  0  0  0  0  0  0
    4.4199   -3.0791   -3.7059 H   0  0  0  0  0  0  0  0  0  0  0  0
    4.7934   -1.4003   -3.2472 H   0  0  0  0  0  0  0  0  0  0  0  0
    6.0597   -2.6484   -3.1639 H   0  0  0  0  0  0  0  0  0  0  0  0
    5.1556   -2.1051   -0.9084 H   0  0  0  0  0  0  0  0  0  0  0  0
    4.8290   -3.7963   -1.3568 H   0  0  0  0  0  0  0  0  0  0  0  0
    2.8363   -3.8328   -3.0219 H   0  0  0  0  0  0  0  0  0  0  0  0
    2.3431   -4.4583   -1.4302 H   0  0  0  0  0  0  0  0  0  0  0  0
    0.3547   -3.8689   -2.7605 H   0  0  0  0  0  0  0  0  0  0  0  0
    0.5023   -2.7746   -1.3645 H   0  0  0  0  0  0  0  0  0  0  0  0
    0.9768   -2.2166   -2.9867 H   0  0  0  0  0  0  0  0  0  0  0  0
    3.6205   -1.9239    0.5484 H   0  0  0  0  0  0  0  0  0  0  0  0
    2.6520   -3.4121    0.4226 H   0  0  0  0  0  0  0  0  0  0  0  0
   -0.3816    0.0482    0.1943 H   0  0  0  0  0  0  0  0  0  0  0  0
   -0.1785    2.4897   -0.0385 H   0  0  0  0  0  0  0  0  0  0  0  0
    4.0640    2.0994   -0.4030 H   0  0  0  0  0  0  0  0  0  0  0  0
    3.8576   -0.3422   -0.1745 H   0  0  0  0  0  0  0  0  0  0  0  0
    2.7639    4.2159   -0.9287 H   0  0  0  0  0  0  0  0  0  0  0  0
   -1.2791    4.4333    2.4595 H   0  0  0  0  0  0  0  0  0  0  0  0
   -2.1217    6.7242    2.9997 H   0  0  0  0  0  0  0  0  0  0  0  0
    1.1660    8.7805   -1.3358 H   0  0  0  0  0  0  0  0  0  0  0  0
    1.8849    9.6984    0.0091 H   0  0  0  0  0  0  0  0  0  0  0  0
    2.4495    8.0477   -0.3438 H   0  0  0  0  0  0  0  0  0  0  0  0
   -3.9762    8.7088    1.8623 H   0  0  0  0  0  0  0  0  0  0  0  0
   -5.4370   10.3725    3.1857 H   0  0  0  0  0  0  0  0  0  0  0  0
   -0.6992   10.4511    4.0995 H   0  0  0  0  0  0  0  0  0  0  0  0
    3.1528   -2.4976   -1.4244 N   0  3  0  0  0  0  0  0  0  0  0  0
    2.9215   -1.6042   -1.8745 H   0  0  0  0  0  0  0  0  0  0  0  0
  1  2  1  0  0  0  0
  1 31  1  0  0  0  0
  1 32  1  0  0  0  0
  1 33  1  0  0  0  0
  2 34  1  0  0  0  0
  2 35  1  0  0  0  0
  2 56  1  0  0  0  0
  3  4  1  0  0  0  0
  3 36  1  0  0  0  0
  3 37  1  0  0  0  0
  3 56  1  0  0  0  0
  4 38  1  0  0  0  0
  4 39  1  0  0  0  0
  4 40  1  0  0  0  0
  5  6  1  0  0  0  0
  5 41  1  0  0  0  0
  5 42  1  0  0  0  0
  5 56  1  0  0  0  0
  6  7  1  0  0  0  0
  7 12  2  0  0  0  0
  7  8  1  0  0  0  0
  8  9  2  0  0  0  0
  8 43  1  0  0  0  0
  9 10  1  0  0  0  0
  9 44  1  0  0  0  0
 10 11  2  0  0  0  0
 10 13  1  0  0  0  0
 11 12  1  0  0  0  0
 11 45  1  0  0  0  0
 12 46  1  0  0  0  0
 13 14  1  0  0  0  0
 13 47  1  0  0  0  0
 14 24  2  0  0  0  0
 14 15  1  0  0  0  0
 15 16  2  0  0  0  0
 16 17  1  0  0  0  0
 16 48  1  0  0  0  0
 17 23  2  0  0  0  0
 17 18  1  0  0  0  0
 18 19  2  0  0  0  0
 18 49  1  0  0  0  0
 19 20  1  0  0  0  0
 19 26  1  0  0  0  0
 20 21  2  0  0  0  0
 20 22  1  0  0  0  0
 22 23  1  0  0  0  0
 22 25  1  0  0  0  0
 23 24  1  0  0  0  0
 25 50  1  0  0  0  0
 25 51  1  0  0  0  0
 25 52  1  0  0  0  0
 26 30  2  0  0  0  0
 26 27  1  0  0  0  0
 27 28  2  0  0  0  0
 27 53  1  0  0  0  0
 28 29  1  0  0  0  0
 28 54  1  0  0  0  0
 29 30  1  0  0  0  0
 30 55  1  0  0  0  0
 56 57  1  0  0  0  0
M  CHG  1  56   1
M  END
$$$$
ZINC03832230
  -OEChem-08230709403D

 28 30  0     0  0  0  0  0  0999 V2000
    3.5325    1.9037   -0.0215 C   0  0  0  0  0  0  0  0  0  0  0  0
    2.3426    1.1124   -0.0143 O   0  0  0  0  0  0  0  0  0  0  0  0
    1.1584    1.7790    0.0006 C   0  0  0  0  0  0  0  0  0  0  0  0
    1.1521    3.1773    0.0077 C   0  0  0  0  0  0  0  0  0  0  0  0
   -0.0163    3.8731    0.0226 C   0  0  0  0  0  0  0  0  0  0  0  0
   -1.2421    3.1838    0.0305 C   0  0  0  0  0  0  0  0  0  0  0  0
   -1.2358    1.7658    0.0175 C   0  0  0  0  0  0  0  0  0  0  0  0
   -0.0126    1.0758    0.0080 C   0  0  0  0  0  0  0  0  0  0  0  0
   -2.4607    1.0759    0.0194 C   0  0  0  0  0  0  0  0  0  0  0  0
   -3.6289    1.8237    0.0285 C   0  0  0  0  0  0  0  0  0  0  0  0
   -3.5526    3.2257    0.0353 C   0  0  0  0  0  0  0  0  0  0  0  0
   -2.4018    3.8493    0.0448 N   0  0  0  0  0  0  0  0  0  0  0  0
   -4.9491    1.1473    0.0304 C   0  0  0  0  0  0  0  0  0  0  0  0
   -6.1279    1.8870    0.0395 C   0  0  0  0  0  0  0  0  0  0  0  0
   -7.3120    1.2344    0.0405 C   0  0  0  0  0  0  0  0  0  0  0  0
   -6.8018   -0.4757    0.0285 S   0  0  0  0  0  0  0  0  0  0  0  0
   -5.0357   -0.2171    0.0176 C   0  0  0  0  0  0  0  0  0  0  0  0
    3.5420    2.5375   -0.9082 H   0  0  0  0  0  0  0  0  0  0  0  0
    3.5590    2.5279    0.8717 H   0  0  0  0  0  0  0  0  0  0  0  0
    4.4040    1.2491   -0.0333 H   0  0  0  0  0  0  0  0  0  0  0  0
    2.0898    3.7132    0.0016 H   0  0  0  0  0  0  0  0  0  0  0  0
   -0.0028    4.9530    0.0286 H   0  0  0  0  0  0  0  0  0  0  0  0
    0.0021   -0.0041    0.0020 H   0  0  0  0  0  0  0  0  0  0  0  0
   -2.4911   -0.0036    0.0137 H   0  0  0  0  0  0  0  0  0  0  0  0
   -4.4652    3.8032    0.0424 H   0  0  0  0  0  0  0  0  0  0  0  0
   -6.0973    2.9665    0.0453 H   0  0  0  0  0  0  0  0  0  0  0  0
   -8.3115    1.6436    0.0464 H   0  0  0  0  0  0  0  0  0  0  0  0
   -4.2414   -0.9487    0.0051 H   0  0  0  0  0  0  0  0  0  0  0  0
  1  2  1  0  0  0  0
  1 18  1  0  0  0  0
  1 19  1  0  0  0  0
  1 20  1  0  0  0  0
  2  3  1  0  0  0  0
  3  8  2  0  0  0  0
  3  4  1  0  0  0  0
  4  5  2  0  0  0  0
  4 21  1  0  0  0  0
  5  6  1  0  0  0  0
  5 22  1  0  0  0  0
  6 12  2  0  0  0  0
  6  7  1  0  0  0  0
  7  8  1  0  0  0  0
  7  9  2  0  0  0  0
  8 23  1  0  0  0  0
  9 10  1  0  0  0  0
  9 24  1  0  0  0  0
 10 11  2  0  0  0  0
 10 13  1  0  0  0  0
 11 12  1  0  0  0  0
 11 25  1  0  0  0  0
 13 17  2  0  0  0  0
 13 14  1  0  0  0  0
 14 15  2  0  0  0  0
 14 26  1  0  0  0  0
 15 16  1  0  0  0  0
 15 27  1  0  0  0  0
 16 17  1  0  0  0  0
 17 28  1  0  0  0  0
M  END
$$$$
ZINC03832231
  -OEChem-08230709403D

 43 46  0     0  0  0  0  0  0999 V2000
   -1.8924    2.3205    1.4933 C   0  0  0  0  0  0  0  0  0  0  0  0
   -1.2515    2.0637    0.1280 C   0  0  0  0  0  0  0  0  0  0  0  0
    0.0102    1.3414    0.3089 N   0  0  0  0  0  0  0  0  0  0  0  0
    0.0125   -0.0305    0.3144 C   0  0  0  0  0  0  0  0  0  0  0  0
    1.2204   -0.7418    0.4818 C   0  0  0  0  0  0  0  0  0  0  0  0
    2.4393   -0.0451    0.6459 C   0  0  0  0  0  0  0  0  0  0  0  0
    2.4272    1.3240    0.6396 C   0  0  0  0  0  0  0  0  0  0  0  0
    1.1570    2.0310    0.4627 C   0  0  0  0  0  0  0  0  0  0  0  0
    1.1373    3.2490    0.4554 O   0  0  0  0  0  0  0  0  0  0  0  0
    3.6881    2.0835    0.8093 C   0  0  0  0  0  0  0  0  0  0  0  0
    3.8748    2.8882    1.9328 C   0  0  0  0  0  0  0  0  0  0  0  0
    5.0534    3.5889    2.0878 C   0  0  0  0  0  0  0  0  0  0  0  0
    6.0439    3.5034    1.1258 C   0  0  0  0  0  0  0  0  0  0  0  0
    5.8622    2.7110    0.0065 C   0  0  0  0  0  0  0  0  0  0  0  0
    4.6904    2.0010   -0.1568 C   0  0  0  0  0  0  0  0  0  0  0  0
    1.1791   -2.1442    0.4804 C   0  0  0  0  0  0  0  0  0  0  0  0
    0.0127   -2.7416    0.3227 N   0  0  0  0  0  0  0  0  0  0  0  0
   -1.1042   -2.0395    0.1678 C   0  0  0  0  0  0  0  0  0  0  0  0
   -1.1153   -0.7155    0.1622 N   0  0  0  0  0  0  0  0  0  0  0  0
   -2.2988   -2.7159    0.0065 N   0  0  0  0  0  0  0  0  0  0  0  0
   -2.3032   -4.1049   -0.1071 C   0  0  0  0  0  0  0  0  0  0  0  0
   -1.2515   -4.7750   -0.7312 C   0  0  0  0  0  0  0  0  0  0  0  0
   -1.2919   -6.1508   -0.8195 C   0  0  0  0  0  0  0  0  0  0  0  0
   -2.3125   -6.8304   -0.3313 N   0  0  0  0  0  0  0  0  0  0  0  0
   -3.3287   -6.2328    0.2621 C   0  0  0  0  0  0  0  0  0  0  0  0
   -3.3622   -4.8604    0.3952 C   0  0  0  0  0  0  0  0  0  0  0  0
   -2.8312    2.8579    1.3587 H   0  0  0  0  0  0  0  0  0  0  0  0
   -2.0863    1.3690    1.9884 H   0  0  0  0  0  0  0  0  0  0  0  0
   -1.2165    2.9176    2.1055 H   0  0  0  0  0  0  0  0  0  0  0  0
   -1.0576    3.0152   -0.3672 H   0  0  0  0  0  0  0  0  0  0  0  0
   -1.9274    1.4666   -0.4842 H   0  0  0  0  0  0  0  0  0  0  0  0
    3.3660   -0.5845    0.7747 H   0  0  0  0  0  0  0  0  0  0  0  0
    3.1003    2.9594    2.6821 H   0  0  0  0  0  0  0  0  0  0  0  0
    5.2010    4.2090    2.9597 H   0  0  0  0  0  0  0  0  0  0  0  0
    6.9628    4.0573    1.2493 H   0  0  0  0  0  0  0  0  0  0  0  0
    6.6391    2.6481   -0.7412 H   0  0  0  0  0  0  0  0  0  0  0  0
    4.5498    1.3823   -1.0309 H   0  0  0  0  0  0  0  0  0  0  0  0
    2.0824   -2.7226    0.6061 H   0  0  0  0  0  0  0  0  0  0  0  0
   -3.1341   -2.2239   -0.0277 H   0  0  0  0  0  0  0  0  0  0  0  0
   -0.4155   -4.2245   -1.1369 H   0  0  0  0  0  0  0  0  0  0  0  0
   -0.4800   -6.6784   -1.2978 H   0  0  0  0  0  0  0  0  0  0  0  0
   -4.1445   -6.8259    0.6482 H   0  0  0  0  0  0  0  0  0  0  0  0
   -4.1971   -4.3776    0.8812 H   0  0  0  0  0  0  0  0  0  0  0  0
  1  2  1  0  0  0  0
  1 27  1  0  0  0  0
  1 28  1  0  0  0  0
  1 29  1  0  0  0  0
  2  3  1  0  0  0  0
  2 30  1  0  0  0  0
  2 31  1  0  0  0  0
  3  8  1  0  0  0  0
  3  4  1  0  0  0  0
  4 19  2  0  0  0  0
  4  5  1  0  0  0  0
  5  6  1  0  0  0  0
  5 16  2  0  0  0  0
  6  7  2  0  0  0  0
  6 32  1  0  0  0  0
  7  8  1  0  0  0  0
  7 10  1  0  0  0  0
  8  9  2  0  0  0  0
 10 15  2  0  0  0  0
 10 11  1  0  0  0  0
 11 12  2  0  0  0  0
 11 33  1  0  0  0  0
 12 13  1  0  0  0  0
 12 34  1  0  0  0  0
 13 14  2  0  0  0  0
 13 35  1  0  0  0  0
 14 15  1  0  0  0  0
 14 36  1  0  0  0  0
 15 37  1  0  0  0  0
 16 17  1  0  0  0  0
 16 38  1  0  0  0  0
 17 18  2  0  0  0  0
 18 19  1  0  0  0  0
 18 20  1  0  0  0  0
 20 21  1  0  0  0  0
 20 39  1  0  0  0  0
 21 26  2  0  0  0  0
 21 22  1  0  0  0  0
 22 23  2  0  0  0  0
 22 40  1  0  0  0  0
 23 24  1  0  0  0  0
 23 41  1  0  0  0  0
 24 25  2  0  0  0  0
 25 26  1  0  0  0  0
 25 42  1  0  0  0  0
 26 43  1  0  0  0  0
M  END
$$$$
ZINC03832232
  -OEChem-08230709403D

 34 36  0     0  0  0  0  0  0999 V2000
    1.0567   -4.7802   -0.0291 C   0  0  0  0  0  0  0  0  0  0  0  0
    2.3338   -4.1393   -0.0383 O   0  0  0  0  0  0  0  0  0  0  0  0
    2.3422   -2.7812   -0.0329 C   0  0  0  0  0  0  0  0  0  0  0  0
    1.1479   -2.0942   -0.0196 C   0  0  0  0  0  0  0  0  0  0  0  0
    1.1509   -0.6910   -0.0126 C   0  0  0  0  0  0  0  0  0  0  0  0
    2.3912   -0.0033   -0.0207 C   0  0  0  0  0  0  0  0  0  0  0  0
    2.3943    1.3998   -0.0137 C   0  0  0  0  0  0  0  0  0  0  0  0
    1.1701    2.0551    0.0019 C   0  0  0  0  0  0  0  0  0  0  0  0
   -0.0157    1.3050    0.0092 C   0  0  0  0  0  0  0  0  0  0  0  0
    0.0021   -0.0041    0.0020 N   0  0  0  0  0  0  0  0  0  0  0  0
    1.1164    3.5370    0.0099 C   0  0  0  0  0  0  0  0  0  0  0  0
    2.2892    4.2981    0.0086 C   0  0  0  0  0  0  0  0  0  0  0  0
    2.1938    5.6743    0.0109 C   0  0  0  0  0  0  0  0  0  0  0  0
    1.0174    6.2716    0.0248 N   0  0  0  0  0  0  0  0  0  0  0  0
   -0.1127    5.5907    0.0316 C   0  0  0  0  0  0  0  0  0  0  0  0
   -0.1083    4.2112    0.0246 C   0  0  0  0  0  0  0  0  0  0  0  0
    3.5973   -0.7346   -0.0352 C   0  0  0  0  0  0  0  0  0  0  0  0
    3.5611   -2.0999   -0.0413 C   0  0  0  0  0  0  0  0  0  0  0  0
    4.7888   -0.0843   -0.0436 O   0  0  0  0  0  0  0  0  0  0  0  0
    5.9681   -0.8911   -0.0581 C   0  0  0  0  0  0  0  0  0  0  0  0
    0.5097   -4.4875    0.8671 H   0  0  0  0  0  0  0  0  0  0  0  0
    0.4933   -4.4803   -0.9128 H   0  0  0  0  0  0  0  0  0  0  0  0
    1.1928   -5.8616   -0.0348 H   0  0  0  0  0  0  0  0  0  0  0  0
    0.2125   -2.6340   -0.0135 H   0  0  0  0  0  0  0  0  0  0  0  0
    3.3214    1.9537   -0.0192 H   0  0  0  0  0  0  0  0  0  0  0  0
   -0.9652    1.8196    0.0165 H   0  0  0  0  0  0  0  0  0  0  0  0
    3.2555    3.8159    0.0018 H   0  0  0  0  0  0  0  0  0  0  0  0
    3.0941    6.2708    0.0058 H   0  0  0  0  0  0  0  0  0  0  0  0
   -1.0539    6.1203    0.0430 H   0  0  0  0  0  0  0  0  0  0  0  0
   -1.0371    3.6602    0.0302 H   0  0  0  0  0  0  0  0  0  0  0  0
    4.4853   -2.6586   -0.0524 H   0  0  0  0  0  0  0  0  0  0  0  0
    5.9696   -1.5164   -0.9509 H   0  0  0  0  0  0  0  0  0  0  0  0
    6.8482   -0.2480   -0.0636 H   0  0  0  0  0  0  0  0  0  0  0  0
    5.9862   -1.5242    0.8289 H   0  0  0  0  0  0  0  0  0  0  0  0
  1  2  1  0  0  0  0
  1 21  1  0  0  0  0
  1 22  1  0  0  0  0
  1 23  1  0  0  0  0
  2  3  1  0  0  0  0
  3 18  2  0  0  0  0
  3  4  1  0  0  0  0
  4  5  2  0  0  0  0
  4 24  1  0  0  0  0
  5 10  1  0  0  0  0
  5  6  1  0  0  0  0
  6  7  1  0  0  0  0
  6 17  2  0  0  0  0
  7  8  2  0  0  0  0
  7 25  1  0  0  0  0
  8  9  1  0  0  0  0
  8 11  1  0  0  0  0
  9 10  2  0  0  0  0
  9 26  1  0  0  0  0
 11 16  2  0  0  0  0
 11 12  1  0  0  0  0
 12 13  2  0  0  0  0
 12 27  1  0  0  0  0
 13 14  1  0  0  0  0
 13 28  1  0  0  0  0
 14 15  2  0  0  0  0
 15 16  1  0  0  0  0
 15 29  1  0  0  0  0
 16 30  1  0  0  0  0
 17 18  1  0  0  0  0
 17 19  1  0  0  0  0
 18 31  1  0  0  0  0
 19 20  1  0  0  0  0
 20 32  1  0  0  0  0
 20 33  1  0  0  0  0
 20 34  1  0  0  0  0
M  END
$$$$
ZINC03832233
  -OEChem-08230709403D

 45 48  0     0  0  0  0  0  0999 V2000
    6.7144    0.3369   -1.9958 C   0  0  0  0  0  0  0  0  0  0  0  0
    6.4308    1.5764   -2.5416 C   0  0  0  0  0  0  0  0  0  0  0  0
    5.2122    2.1767   -2.3013 C   0  0  0  0  0  0  0  0  0  0  0  0
    4.2644    1.5310   -1.5056 C   0  0  0  0  0  0  0  0  0  0  0  0
    4.5590    0.2831   -0.9537 C   0  0  0  0  0  0  0  0  0  0  0  0
    5.7792   -0.3088   -1.2066 C   0  0  0  0  0  0  0  0  0  0  0  0
    2.9568    2.1685   -1.2434 C   0  0  0  0  0  0  0  0  0  0  0  0
    2.7049    3.2576   -1.7212 O   0  0  0  0  0  0  0  0  0  0  0  0
    2.0438    1.5424   -0.4747 N   0  0  0  0  0  0  0  0  0  0  0  0
    0.7759    2.1057   -0.2955 C   0  0  0  0  0  0  0  0  0  0  0  0
    0.6319    3.4858   -0.2245 C   0  0  0  0  0  0  0  0  0  0  0  0
   -0.6198    4.0433   -0.0480 C   0  0  0  0  0  0  0  0  0  0  0  0
   -1.7329    3.2303    0.0585 C   0  0  0  0  0  0  0  0  0  0  0  0
   -1.5958    1.8489   -0.0175 C   0  0  0  0  0  0  0  0  0  0  0  0
   -0.3389    1.2865   -0.1890 C   0  0  0  0  0  0  0  0  0  0  0  0
   -2.7228    1.0268    0.0844 N   0  0  0  0  0  0  0  0  0  0  0  0
   -2.6280   -0.2036    0.7140 C   0  0  0  0  0  0  0  0  0  0  0  0
   -1.4457   -0.6182    1.1463 N   0  0  0  0  0  0  0  0  0  0  0  0
   -1.3137   -1.7872    1.7525 C   0  0  0  0  0  0  0  0  0  0  0  0
   -2.4298   -2.5848    1.9352 C   0  0  0  0  0  0  0  0  0  0  0  0
   -3.6626   -2.1213    1.4689 C   0  0  0  0  0  0  0  0  0  0  0  0
   -3.7213   -0.9324    0.8730 N   0  0  0  0  0  0  0  0  0  0  0  0
   -4.8882   -2.9386    1.6409 C   0  0  0  0  0  0  0  0  0  0  0  0
   -6.1222   -2.4754    1.1746 C   0  0  0  0  0  0  0  0  0  0  0  0
   -7.2361   -3.2757    1.3596 C   0  0  0  0  0  0  0  0  0  0  0  0
   -7.0942   -4.4967    1.9941 C   0  0  0  0  0  0  0  0  0  0  0  0
   -5.9166   -4.9071    2.4234 N   0  0  0  0  0  0  0  0  0  0  0  0
   -4.8276   -4.1829    2.2649 C   0  0  0  0  0  0  0  0  0  0  0  0
   -3.3038    3.9351    0.2803 Cl  0  0  0  0  0  0  0  0  0  0  0  0
    7.6699   -0.1287   -2.1870 H   0  0  0  0  0  0  0  0  0  0  0  0
    7.1649    2.0747   -3.1573 H   0  0  0  0  0  0  0  0  0  0  0  0
    4.9922    3.1443   -2.7275 H   0  0  0  0  0  0  0  0  0  0  0  0
    3.8317   -0.2198   -0.3336 H   0  0  0  0  0  0  0  0  0  0  0  0
    6.0069   -1.2761   -0.7836 H   0  0  0  0  0  0  0  0  0  0  0  0
    2.2659    0.7012   -0.0458 H   0  0  0  0  0  0  0  0  0  0  0  0
    1.4996    4.1235   -0.3071 H   0  0  0  0  0  0  0  0  0  0  0  0
   -0.7289    5.1163    0.0072 H   0  0  0  0  0  0  0  0  0  0  0  0
   -0.2292    0.2135   -0.2439 H   0  0  0  0  0  0  0  0  0  0  0  0
   -3.5708    1.3181   -0.2857 H   0  0  0  0  0  0  0  0  0  0  0  0
   -0.3454   -2.1154    2.1005 H   0  0  0  0  0  0  0  0  0  0  0  0
   -2.3496   -3.5433    2.4264 H   0  0  0  0  0  0  0  0  0  0  0  0
   -6.2042   -1.5174    0.6828 H   0  0  0  0  0  0  0  0  0  0  0  0
   -8.2056   -2.9506    1.0121 H   0  0  0  0  0  0  0  0  0  0  0  0
   -7.9613   -5.1239    2.1398 H   0  0  0  0  0  0  0  0  0  0  0  0
   -3.8802   -4.5550    2.6259 H   0  0  0  0  0  0  0  0  0  0  0  0
  1  6  2  0  0  0  0
  1  2  1  0  0  0  0
  1 30  1  0  0  0  0
  2  3  2  0  0  0  0
  2 31  1  0  0  0  0
  3  4  1  0  0  0  0
  3 32  1  0  0  0  0
  4  5  2  0  0  0  0
  4  7  1  0  0  0  0
  5  6  1  0  0  0  0
  5 33  1  0  0  0  0
  6 34  1  0  0  0  0
  7  8  2  0  0  0  0
  7  9  1  0  0  0  0
  9 10  1  0  0  0  0
  9 35  1  0  0  0  0
 10 15  2  0  0  0  0
 10 11  1  0  0  0  0
 11 12  2  0  0  0  0
 11 36  1  0  0  0  0
 12 13  1  0  0  0  0
 12 37  1  0  0  0  0
 13 14  2  0  0  0  0
 13 29  1  0  0  0  0
 14 15  1  0  0  0  0
 14 16  1  0  0  0  0
 15 38  1  0  0  0  0
 16 17  1  0  0  0  0
 16 39  1  0  0  0  0
 17 22  2  0  0  0  0
 17 18  1  0  0  0  0
 18 19  2  0  0  0  0
 19 20  1  0  0  0  0
 19 40  1  0  0  0  0
 20 21  2  0  0  0  0
 20 41  1  0  0  0  0
 21 22  1  0  0  0  0
 21 23  1  0  0  0  0
 23 28  2  0  0  0  0
 23 24  1  0  0  0  0
 24 25  2  0  0  0  0
 24 42  1  0  0  0  0
 25 26  1  0  0  0  0
 25 43  1  0  0  0  0
 26 27  2  0  0  0  0
 26 44  1  0  0  0  0
 27 28  1  0  0  0  0
 28 45  1  0  0  0  0
M  END
$$$$
ZINC03832234
  -OEChem-08230709403D

 44 46  0     0  0  0  0  0  0999 V2000
    3.5721    2.0745   -0.0209 C   0  0  0  0  0  0  0  0  0  0  0  0
    2.3715    1.1261   -0.0145 C   0  0  0  0  0  0  0  0  0  0  0  0
    1.1432    1.9003    0.0013 O   0  0  0  0  0  0  0  0  0  0  0  0
   -0.0144    1.2107    0.0087 C   0  0  0  0  0  0  0  0  0  0  0  0
    0.0021   -0.0041    0.0020 O   0  0  0  0  0  0  0  0  0  0  0  0
   -1.3022    1.9311    0.0187 C   0  0  0  0  0  0  0  0  0  0  0  0
   -1.3218    3.3287    0.0322 C   0  0  0  0  0  0  0  0  0  0  0  0
   -2.5235    3.9995    0.0361 C   0  0  0  0  0  0  0  0  0  0  0  0
   -3.7222    3.2848    0.0379 C   0  0  0  0  0  0  0  0  0  0  0  0
   -3.7039    1.8894    0.0298 C   0  0  0  0  0  0  0  0  0  0  0  0
   -2.5035    1.2164    0.0205 C   0  0  0  0  0  0  0  0  0  0  0  0
   -5.0156    4.0083    0.0479 C   0  0  0  0  0  0  0  0  0  0  0  0
   -5.0404    5.3969    0.0618 C   0  0  0  0  0  0  0  0  0  0  0  0
   -6.2918    6.0341    0.0653 C   0  0  0  0  0  0  0  0  0  0  0  0
   -6.3934    7.4363    0.0742 C   0  0  0  0  0  0  0  0  0  0  0  0
   -7.6242    8.0238    0.0841 C   0  0  0  0  0  0  0  0  0  0  0  0
   -8.7904    7.2428    0.0845 C   0  0  0  0  0  0  0  0  0  0  0  0
   -8.7216    5.8799    0.0760 C   0  0  0  0  0  0  0  0  0  0  0  0
   -7.4694    5.2429    0.0662 C   0  0  0  0  0  0  0  0  0  0  0  0
   -7.3813    3.9081    0.0581 N   0  0  0  0  0  0  0  0  0  0  0  0
   -6.2246    3.2952    0.0493 C   0  0  0  0  0  0  0  0  0  0  0  0
  -10.0047    7.8522    0.0941 O   0  0  0  0  0  0  0  0  0  0  0  0
  -11.1556    7.0052    0.0946 C   0  0  0  0  0  0  0  0  0  0  0  0
   -7.7224    9.3797    0.0931 O   0  0  0  0  0  0  0  0  0  0  0  0
   -6.4994   10.1188    0.0920 C   0  0  0  0  0  0  0  0  0  0  0  0
    3.5302    2.7077   -0.9071 H   0  0  0  0  0  0  0  0  0  0  0  0
    3.5472    2.6982    0.8727 H   0  0  0  0  0  0  0  0  0  0  0  0
    4.4941    1.4934   -0.0328 H   0  0  0  0  0  0  0  0  0  0  0  0
    2.4134    0.4929    0.8717 H   0  0  0  0  0  0  0  0  0  0  0  0
    2.3964    0.5025   -0.9082 H   0  0  0  0  0  0  0  0  0  0  0  0
   -0.3943    3.8820    0.0353 H   0  0  0  0  0  0  0  0  0  0  0  0
   -2.5389    5.0793    0.0424 H   0  0  0  0  0  0  0  0  0  0  0  0
   -4.6322    1.3374    0.0312 H   0  0  0  0  0  0  0  0  0  0  0  0
   -2.4896    0.1365    0.0150 H   0  0  0  0  0  0  0  0  0  0  0  0
   -4.1247    5.9695    0.0658 H   0  0  0  0  0  0  0  0  0  0  0  0
   -5.5013    8.0451    0.0732 H   0  0  0  0  0  0  0  0  0  0  0  0
   -9.6278    5.2923    0.0773 H   0  0  0  0  0  0  0  0  0  0  0  0
   -6.2000    2.2155    0.0434 H   0  0  0  0  0  0  0  0  0  0  0  0
  -12.0573    7.6176    0.1026 H   0  0  0  0  0  0  0  0  0  0  0  0
  -11.1480    6.3814   -0.7992 H   0  0  0  0  0  0  0  0  0  0  0  0
  -11.1394    6.3707    0.9807 H   0  0  0  0  0  0  0  0  0  0  0  0
   -5.9185    9.8614    0.9777 H   0  0  0  0  0  0  0  0  0  0  0  0
   -5.9268    9.8726   -0.8022 H   0  0  0  0  0  0  0  0  0  0  0  0
   -6.7199   11.1862    0.0998 H   0  0  0  0  0  0  0  0  0  0  0  0
  1  2  1  0  0  0  0
  1 26  1  0  0  0  0
  1 27  1  0  0  0  0
  1 28  1  0  0  0  0
  2  3  1  0  0  0  0
  2 29  1  0  0  0  0
  2 30  1  0  0  0  0
  3  4  1  0  0  0  0
  4  5  2  0  0  0  0
  4  6  1  0  0  0  0
  6 11  2  0  0  0  0
  6  7  1  0  0  0  0
  7  8  2  0  0  0  0
  7 31  1  0  0  0  0
  8  9  1  0  0  0  0
  8 32  1  0  0  0  0
  9 10  2  0  0  0  0
  9 12  1  0  0  0  0
 10 11  1  0  0  0  0
 10 33  1  0  0  0  0
 11 34  1  0  0  0  0
 12 21  2  0  0  0  0
 12 13  1  0  0  0  0
 13 14  2  0  0  0  0
 13 35  1  0  0  0  0
 14 19  1  0  0  0  0
 14 15  1  0  0  0  0
 15 16  2  0  0  0  0
 15 36  1  0  0  0  0
 16 17  1  0  0  0  0
 16 24  1  0  0  0  0
 17 18  2  0  0  0  0
 17 22  1  0  0  0  0
 18 19  1  0  0  0  0
 18 37  1  0  0  0  0
 19 20  2  0  0  0  0
 20 21  1  0  0  0  0
 21 38  1  0  0  0  0
 22 23  1  0  0  0  0
 23 39  1  0  0  0  0
 23 40  1  0  0  0  0
 23 41  1  0  0  0  0
 24 25  1  0  0  0  0
 25 42  1  0  0  0  0
 25 43  1  0  0  0  0
 25 44  1  0  0  0  0
M  END
$$$$
ZINC03832235
  -OEChem-08230709403D

 31 33  0     0  0  0  0  0  0999 V2000
   -6.1081   -2.5614    0.0197 C   0  0  0  0  0  0  0  0  0  0  0  0
   -4.8969   -3.2305    0.0103 C   0  0  0  0  0  0  0  0  0  0  0  0
   -3.7137   -2.5218    0.0081 C   0  0  0  0  0  0  0  0  0  0  0  0
   -3.7402   -1.1247    0.0153 C   0  0  0  0  0  0  0  0  0  0  0  0
   -4.9671   -0.4559    0.0306 C   0  0  0  0  0  0  0  0  0  0  0  0
   -6.1422   -1.1780    0.0265 C   0  0  0  0  0  0  0  0  0  0  0  0
   -2.4802   -0.3602    0.0129 C   0  0  0  0  0  0  0  0  0  0  0  0
   -2.5094    0.9824    0.0199 C   0  0  0  0  0  0  0  0  0  0  0  0
   -1.2498    1.7466    0.0175 C   0  0  0  0  0  0  0  0  0  0  0  0
   -1.2730    3.1380    0.0297 C   0  0  0  0  0  0  0  0  0  0  0  0
   -0.0435    3.8171    0.0221 C   0  0  0  0  0  0  0  0  0  0  0  0
    0.0126    5.2216    0.0296 C   0  0  0  0  0  0  0  0  0  0  0  0
    1.2219    5.8467    0.0223 C   0  0  0  0  0  0  0  0  0  0  0  0
    2.4057    5.1118    0.0075 C   0  0  0  0  0  0  0  0  0  0  0  0
    2.3883    3.7507   -0.0005 C   0  0  0  0  0  0  0  0  0  0  0  0
    1.1601    3.0675    0.0070 C   0  0  0  0  0  0  0  0  0  0  0  0
    1.1199    1.7303    0.0007 N   0  0  0  0  0  0  0  0  0  0  0  0
   -0.0126    1.0758    0.0080 C   0  0  0  0  0  0  0  0  0  0  0  0
   -7.0315   -3.1216    0.0214 H   0  0  0  0  0  0  0  0  0  0  0  0
   -4.8780   -4.3103    0.0051 H   0  0  0  0  0  0  0  0  0  0  0  0
   -2.7691   -3.0454    0.0004 H   0  0  0  0  0  0  0  0  0  0  0  0
   -4.9952    0.6237    0.0408 H   0  0  0  0  0  0  0  0  0  0  0  0
   -7.0912   -0.6626    0.0334 H   0  0  0  0  0  0  0  0  0  0  0  0
   -1.5334   -0.8797    0.0056 H   0  0  0  0  0  0  0  0  0  0  0  0
   -3.4562    1.5019    0.0273 H   0  0  0  0  0  0  0  0  0  0  0  0
   -2.2077    3.6790    0.0408 H   0  0  0  0  0  0  0  0  0  0  0  0
   -0.8985    5.8015    0.0406 H   0  0  0  0  0  0  0  0  0  0  0  0
    1.2643    6.9259    0.0284 H   0  0  0  0  0  0  0  0  0  0  0  0
    3.3529    5.6308    0.0024 H   0  0  0  0  0  0  0  0  0  0  0  0
    3.3157    3.1974   -0.0120 H   0  0  0  0  0  0  0  0  0  0  0  0
    0.0021   -0.0041    0.0020 H   0  0  0  0  0  0  0  0  0  0  0  0
  1  6  2  0  0  0  0
  1  2  1  0  0  0  0
  1 19  1  0  0  0  0
  2  3  2  0  0  0  0
  2 20  1  0  0  0  0
  3  4  1  0  0  0  0
  3 21  1  0  0  0  0
  4  5  2  0  0  0  0
  4  7  1  0  0  0  0
  5  6  1  0  0  0  0
  5 22  1  0  0  0  0
  6 23  1  0  0  0  0
  7  8  2  0  0  0  0
  7 24  1  0  0  0  0
  8  9  1  0  0  0  0
  8 25  1  0  0  0  0
  9 18  2  0  0  0  0
  9 10  1  0  0  0  0
 10 11  2  0  0  0  0
 10 26  1  0  0  0  0
 11 16  1  0  0  0  0
 11 12  1  0  0  0  0
 12 13  2  0  0  0  0
 12 27  1  0  0  0  0
 13 14  1  0  0  0  0
 13 28  1  0  0  0  0
 14 15  2  0  0  0  0
 14 29  1  0  0  0  0
 15 16  1  0  0  0  0
 15 30  1  0  0  0  0
 16 17  2  0  0  0  0
 17 18  1  0  0  0  0
 18 31  1  0  0  0  0
M  END
$$$$
ZINC03832236
  -OEChem-08230709403D

 36 38  0     0  0  0  0  0  0999 V2000
   -7.2403    0.8683    0.0402 C   0  0  0  0  0  0  0  0  0  0  0  0
   -6.3592   -0.2567    0.0304 O   0  0  0  0  0  0  0  0  0  0  0  0
   -5.0264    0.0039    0.0260 C   0  0  0  0  0  0  0  0  0  0  0  0
   -3.9815   -0.8720    0.0168 C   0  0  0  0  0  0  0  0  0  0  0  0
   -2.6953   -0.3771    0.0073 C   0  0  0  0  0  0  0  0  0  0  0  0
   -2.5108    0.9792    0.0194 C   0  0  0  0  0  0  0  0  0  0  0  0
   -4.1912    1.5817    0.0302 S   0  0  0  0  0  0  0  0  0  0  0  0
   -1.2483    1.7457    0.0175 C   0  0  0  0  0  0  0  0  0  0  0  0
   -1.2723    3.1363    0.0306 C   0  0  0  0  0  0  0  0  0  0  0  0
   -0.0440    3.8168    0.0221 C   0  0  0  0  0  0  0  0  0  0  0  0
    0.0082    5.2218    0.0284 C   0  0  0  0  0  0  0  0  0  0  0  0
    1.2176    5.8525    0.0193 C   0  0  0  0  0  0  0  0  0  0  0  0
    2.4104    5.1132    0.0047 C   0  0  0  0  0  0  0  0  0  0  0  0
    2.3898    3.7489   -0.0016 C   0  0  0  0  0  0  0  0  0  0  0  0
    1.1607    3.0678    0.0070 C   0  0  0  0  0  0  0  0  0  0  0  0
    1.1206    1.7306    0.0007 N   0  0  0  0  0  0  0  0  0  0  0  0
   -0.0126    1.0758    0.0080 C   0  0  0  0  0  0  0  0  0  0  0  0
    3.6027    5.7653   -0.0037 O   0  0  0  0  0  0  0  0  0  0  0  0
    4.7828    4.9595   -0.0189 C   0  0  0  0  0  0  0  0  0  0  0  0
    1.2681    7.2110    0.0249 O   0  0  0  0  0  0  0  0  0  0  0  0
    0.0199    7.9065    0.0398 C   0  0  0  0  0  0  0  0  0  0  0  0
   -7.0559    1.4664    0.9326 H   0  0  0  0  0  0  0  0  0  0  0  0
   -7.0636    1.4759   -0.8473 H   0  0  0  0  0  0  0  0  0  0  0  0
   -8.2734    0.5207    0.0428 H   0  0  0  0  0  0  0  0  0  0  0  0
   -4.1591   -1.9373    0.0118 H   0  0  0  0  0  0  0  0  0  0  0  0
   -1.8484   -1.0471   -0.0060 H   0  0  0  0  0  0  0  0  0  0  0  0
   -2.2075    3.6765    0.0425 H   0  0  0  0  0  0  0  0  0  0  0  0
   -0.9047    5.7988    0.0396 H   0  0  0  0  0  0  0  0  0  0  0  0
    3.3161    3.1938   -0.0136 H   0  0  0  0  0  0  0  0  0  0  0  0
    0.0021   -0.0041    0.0020 H   0  0  0  0  0  0  0  0  0  0  0  0
    5.6623    5.6033   -0.0244 H   0  0  0  0  0  0  0  0  0  0  0  0
    4.8016    4.3260    0.8679 H   0  0  0  0  0  0  0  0  0  0  0  0
    4.7844    4.3345   -0.9120 H   0  0  0  0  0  0  0  0  0  0  0  0
    0.2027    8.9810    0.0429 H   0  0  0  0  0  0  0  0  0  0  0  0
   -0.5560    7.6385   -0.8460 H   0  0  0  0  0  0  0  0  0  0  0  0
   -0.5392    7.6305    0.9339 H   0  0  0  0  0  0  0  0  0  0  0  0
  1  2  1  0  0  0  0
  1 22  1  0  0  0  0
  1 23  1  0  0  0  0
  1 24  1  0  0  0  0
  2  3  1  0  0  0  0
  3  7  1  0  0  0  0
  3  4  2  0  0  0  0
  4  5  1  0  0  0  0
  4 25  1  0  0  0  0
  5  6  2  0  0  0  0
  5 26  1  0  0  0  0
  6  7  1  0  0  0  0
  6  8  1  0  0  0  0
  8 17  2  0  0  0  0
  8  9  1  0  0  0  0
  9 10  2  0  0  0  0
  9 27  1  0  0  0  0
 10 15  1  0  0  0  0
 10 11  1  0  0  0  0
 11 12  2  0  0  0  0
 11 28  1  0  0  0  0
 12 13  1  0  0  0  0
 12 20  1  0  0  0  0
 13 14  2  0  0  0  0
 13 18  1  0  0  0  0
 14 15  1  0  0  0  0
 14 29  1  0  0  0  0
 15 16  2  0  0  0  0
 16 17  1  0  0  0  0
 17 30  1  0  0  0  0
 18 19  1  0  0  0  0
 19 31  1  0  0  0  0
 19 32  1  0  0  0  0
 19 33  1  0  0  0  0
 20 21  1  0  0  0  0
 21 34  1  0  0  0  0
 21 35  1  0  0  0  0
 21 36  1  0  0  0  0
M  END
$$$$
ZINC03832237
  -OEChem-08230709403D

 49 52  0     0  0  0  0  0  0999 V2000
   -3.4049    3.7848    0.0395 C   0  0  0  0  0  0  0  0  0  0  0  0
   -3.2972    2.7615   -0.8843 C   0  0  0  0  0  0  0  0  0  0  0  0
   -2.1756    1.9556   -0.8967 C   0  0  0  0  0  0  0  0  0  0  0  0
   -1.1555    2.1739    0.0196 C   0  0  0  0  0  0  0  0  0  0  0  0
   -1.2691    3.1986    0.9496 C   0  0  0  0  0  0  0  0  0  0  0  0
   -2.3904    4.0050    0.9530 C   0  0  0  0  0  0  0  0  0  0  0  0
   -0.0164    1.3581    0.0095 N   0  0  0  0  0  0  0  0  0  0  0  0
    0.0021   -0.0041    0.0020 C   0  0  0  0  0  0  0  0  0  0  0  0
    1.2301   -0.4342   -0.0120 N   0  0  0  0  0  0  0  0  0  0  0  0
    2.0853    0.6208   -0.0145 C   0  0  0  0  0  0  0  0  0  0  0  0
    1.3001    1.7861   -0.0008 C   0  0  0  0  0  0  0  0  0  0  0  0
    1.9078    3.0332    0.0006 C   0  0  0  0  0  0  0  0  0  0  0  0
    3.2830    3.1275   -0.0120 C   0  0  0  0  0  0  0  0  0  0  0  0
    4.0676    1.9781   -0.0261 C   0  0  0  0  0  0  0  0  0  0  0  0
    3.4782    0.7294   -0.0272 C   0  0  0  0  0  0  0  0  0  0  0  0
    5.4231    2.0854   -0.0385 O   0  0  0  0  0  0  0  0  0  0  0  0
    5.9693    3.4059   -0.0366 C   0  0  0  0  0  0  0  0  0  0  0  0
    7.4972    3.3258   -0.0516 C   0  0  0  0  0  0  0  0  0  0  0  0
    8.0821    4.7396   -0.0496 C   0  0  0  0  0  0  0  0  0  0  0  0
   10.0582    4.0788    1.1854 C   0  0  0  0  0  0  0  0  0  0  0  0
   11.5826    3.9623    1.1039 C   0  0  0  0  0  0  0  0  0  0  0  0
   12.1409    5.2527    0.8422 O   0  0  0  0  0  0  0  0  0  0  0  0
   11.6672    5.8505   -0.3676 C   0  0  0  0  0  0  0  0  0  0  0  0
   10.1437    5.9861   -0.3009 C   0  0  0  0  0  0  0  0  0  0  0  0
   -4.2829    4.4137    0.0472 H   0  0  0  0  0  0  0  0  0  0  0  0
   -4.0909    2.5924   -1.5970 H   0  0  0  0  0  0  0  0  0  0  0  0
   -2.0920    1.1567   -1.6187 H   0  0  0  0  0  0  0  0  0  0  0  0
   -0.4793    3.3680    1.6665 H   0  0  0  0  0  0  0  0  0  0  0  0
   -2.4774    4.8050    1.6733 H   0  0  0  0  0  0  0  0  0  0  0  0
   -0.8746   -0.6349    0.0070 H   0  0  0  0  0  0  0  0  0  0  0  0
    1.3044    3.9288    0.0119 H   0  0  0  0  0  0  0  0  0  0  0  0
    3.7544    4.0992   -0.0106 H   0  0  0  0  0  0  0  0  0  0  0  0
    4.0913   -0.1596   -0.0382 H   0  0  0  0  0  0  0  0  0  0  0  0
    5.6250    3.9428   -0.9205 H   0  0  0  0  0  0  0  0  0  0  0  0
    5.6420    3.9333    0.8594 H   0  0  0  0  0  0  0  0  0  0  0  0
    7.8415    2.7888    0.8323 H   0  0  0  0  0  0  0  0  0  0  0  0
    7.8246    2.7984   -0.9476 H   0  0  0  0  0  0  0  0  0  0  0  0
    7.7377    5.2765   -0.9335 H   0  0  0  0  0  0  0  0  0  0  0  0
    7.7547    5.2669    0.8464 H   0  0  0  0  0  0  0  0  0  0  0  0
    9.7865    4.7200    2.0240 H   0  0  0  0  0  0  0  0  0  0  0  0
    9.6247    3.0889    1.3279 H   0  0  0  0  0  0  0  0  0  0  0  0
   11.8528    3.2788    0.2990 H   0  0  0  0  0  0  0  0  0  0  0  0
   11.9698    3.5832    2.0496 H   0  0  0  0  0  0  0  0  0  0  0  0
   11.9399    5.2219   -1.2153 H   0  0  0  0  0  0  0  0  0  0  0  0
   12.1155    6.8369   -0.4861 H   0  0  0  0  0  0  0  0  0  0  0  0
    9.7725    6.3885   -1.2435 H   0  0  0  0  0  0  0  0  0  0  0  0
    9.8733    6.6577    0.5139 H   0  0  0  0  0  0  0  0  0  0  0  0
    9.5577    4.6468   -0.0843 N   0  3  0  0  0  0  0  0  0  0  0  0
    9.8353    4.0315   -0.8580 H   0  0  0  0  0  0  0  0  0  0  0  0
  1  6  2  0  0  0  0
  1  2  1  0  0  0  0
  1 25  1  0  0  0  0
  2  3  2  0  0  0  0
  2 26  1  0  0  0  0
  3  4  1  0  0  0  0
  3 27  1  0  0  0  0
  4  5  2  0  0  0  0
  4  7  1  0  0  0  0
  5  6  1  0  0  0  0
  5 28  1  0  0  0  0
  6 29  1  0  0  0  0
  7 11  1  0  0  0  0
  7  8  1  0  0  0  0
  8  9  2  0  0  0  0
  8 30  1  0  0  0  0
  9 10  1  0  0  0  0
 10 15  2  0  0  0  0
 10 11  1  0  0  0  0
 11 12  2  0  0  0  0
 12 13  1  0  0  0  0
 12 31  1  0  0  0  0
 13 14  2  0  0  0  0
 13 32  1  0  0  0  0
 14 15  1  0  0  0  0
 14 16  1  0  0  0  0
 15 33  1  0  0  0  0
 16 17  1  0  0  0  0
 17 18  1  0  0  0  0
 17 34  1  0  0  0  0
 17 35  1  0  0  0  0
 18 19  1  0  0  0  0
 18 36  1  0  0  0  0
 18 37  1  0  0  0  0
 19 38  1  0  0  0  0
 19 39  1  0  0  0  0
 19 48  1  0  0  0  0
 20 21  1  0  0  0  0
 20 40  1  0  0  0  0
 20 41  1  0  0  0  0
 20 48  1  0  0  0  0
 21 22  1  0  0  0  0
 21 42  1  0  0  0  0
 21 43  1  0  0  0  0
 22 23  1  0  0  0  0
 23 24  1  0  0  0  0
 23 44  1  0  0  0  0
 23 45  1  0  0  0  0
 24 46  1  0  0  0  0
 24 47  1  0  0  0  0
 24 48  1  0  0  0  0
 48 49  1  0  0  0  0
M  CHG  1  48   1
M  END
$$$$
ZINC03832238
  -OEChem-08230709403D

 44 47  0     0  0  0  0  0  0999 V2000
   -1.9062    2.3203    1.4976 C   0  0  0  0  0  0  0  0  0  0  0  0
   -1.2481    2.0627    0.1406 C   0  0  0  0  0  0  0  0  0  0  0  0
    0.0104    1.3392    0.3378 N   0  0  0  0  0  0  0  0  0  0  0  0
    0.0113   -0.0328    0.3435 C   0  0  0  0  0  0  0  0  0  0  0  0
    1.2163   -0.7453    0.5265 C   0  0  0  0  0  0  0  0  0  0  0  0
    2.4337   -0.0497    0.7055 C   0  0  0  0  0  0  0  0  0  0  0  0
    2.4231    1.3194    0.6984 C   0  0  0  0  0  0  0  0  0  0  0  0
    1.1558    2.0277    0.5061 C   0  0  0  0  0  0  0  0  0  0  0  0
    1.1374    3.2456    0.4984 O   0  0  0  0  0  0  0  0  0  0  0  0
    3.6825    2.0777    0.8836 C   0  0  0  0  0  0  0  0  0  0  0  0
    3.8558    2.8827    2.0091 C   0  0  0  0  0  0  0  0  0  0  0  0
    5.0333    3.5819    2.1789 C   0  0  0  0  0  0  0  0  0  0  0  0
    6.0358    3.4949    1.2296 C   0  0  0  0  0  0  0  0  0  0  0  0
    5.8675    2.7020    0.1085 C   0  0  0  0  0  0  0  0  0  0  0  0
    4.6969    1.9936   -0.0696 C   0  0  0  0  0  0  0  0  0  0  0  0
    1.1735   -2.1476    0.5253 C   0  0  0  0  0  0  0  0  0  0  0  0
    0.0087   -2.7440    0.3533 N   0  0  0  0  0  0  0  0  0  0  0  0
   -1.1056   -2.0408    0.1839 C   0  0  0  0  0  0  0  0  0  0  0  0
   -1.1152   -0.7166    0.1775 N   0  0  0  0  0  0  0  0  0  0  0  0
   -2.2982   -2.7158    0.0080 N   0  0  0  0  0  0  0  0  0  0  0  0
   -2.3026   -4.1092   -0.1054 C   0  0  0  0  0  0  0  0  0  0  0  0
   -1.2464   -4.7600   -0.7302 C   0  0  0  0  0  0  0  0  0  0  0  0
   -1.2512   -6.1371   -0.8354 C   0  0  0  0  0  0  0  0  0  0  0  0
   -2.3111   -6.8671   -0.3294 C   0  0  0  0  0  0  0  0  0  0  0  0
   -3.3671   -6.2218    0.2877 C   0  0  0  0  0  0  0  0  0  0  0  0
   -3.3659   -4.8455    0.4014 C   0  0  0  0  0  0  0  0  0  0  0  0
   -2.8426    2.8586    1.3509 H   0  0  0  0  0  0  0  0  0  0  0  0
   -2.1073    1.3691    1.9904 H   0  0  0  0  0  0  0  0  0  0  0  0
   -1.2376    2.9168    2.1183 H   0  0  0  0  0  0  0  0  0  0  0  0
   -1.0470    3.0139   -0.3521 H   0  0  0  0  0  0  0  0  0  0  0  0
   -1.9167    1.4662   -0.4800 H   0  0  0  0  0  0  0  0  0  0  0  0
    3.3582   -0.5900    0.8462 H   0  0  0  0  0  0  0  0  0  0  0  0
    3.0720    2.9552    2.7484 H   0  0  0  0  0  0  0  0  0  0  0  0
    5.1705    4.2022    3.0523 H   0  0  0  0  0  0  0  0  0  0  0  0
    6.9537    4.0478    1.3645 H   0  0  0  0  0  0  0  0  0  0  0  0
    6.6539    2.6377   -0.6291 H   0  0  0  0  0  0  0  0  0  0  0  0
    4.5666    1.3750   -0.9452 H   0  0  0  0  0  0  0  0  0  0  0  0
    2.0746   -2.7269    0.6627 H   0  0  0  0  0  0  0  0  0  0  0  0
   -3.1325   -2.2229   -0.0368 H   0  0  0  0  0  0  0  0  0  0  0  0
   -0.4205   -4.1901   -1.1295 H   0  0  0  0  0  0  0  0  0  0  0  0
   -0.4283   -6.6440   -1.3174 H   0  0  0  0  0  0  0  0  0  0  0  0
   -2.3143   -7.9435   -0.4167 H   0  0  0  0  0  0  0  0  0  0  0  0
   -4.1935   -6.7949    0.6815 H   0  0  0  0  0  0  0  0  0  0  0  0
   -4.1909   -4.3421    0.8834 H   0  0  0  0  0  0  0  0  0  0  0  0
  1  2  1  0  0  0  0
  1 27  1  0  0  0  0
  1 28  1  0  0  0  0
  1 29  1  0  0  0  0
  2  3  1  0  0  0  0
  2 30  1  0  0  0  0
  2 31  1  0  0  0  0
  3  8  1  0  0  0  0
  3  4  1  0  0  0  0
  4 19  2  0  0  0  0
  4  5  1  0  0  0  0
  5  6  1  0  0  0  0
  5 16  2  0  0  0  0
  6  7  2  0  0  0  0
  6 32  1  0  0  0  0
  7  8  1  0  0  0  0
  7 10  1  0  0  0  0
  8  9  2  0  0  0  0
 10 15  2  0  0  0  0
 10 11  1  0  0  0  0
 11 12  2  0  0  0  0
 11 33  1  0  0  0  0
 12 13  1  0  0  0  0
 12 34  1  0  0  0  0
 13 14  2  0  0  0  0
 13 35  1  0  0  0  0
 14 15  1  0  0  0  0
 14 36  1  0  0  0  0
 15 37  1  0  0  0  0
 16 17  1  0  0  0  0
 16 38  1  0  0  0  0
 17 18  2  0  0  0  0
 18 19  1  0  0  0  0
 18 20  1  0  0  0  0
 20 21  1  0  0  0  0
 20 39  1  0  0  0  0
 21 26  2  0  0  0  0
 21 22  1  0  0  0  0
 22 23  2  0  0  0  0
 22 40  1  0  0  0  0
 23 24  1  0  0  0  0
 23 41  1  0  0  0  0
 24 25  2  0  0  0  0
 24 42  1  0  0  0  0
 25 26  1  0  0  0  0
 25 43  1  0  0  0  0
 26 44  1  0  0  0  0
M  END
$$$$
ZINC03832239
  -OEChem-08230709403D

 57 60  0     0  0  0  0  0  0999 V2000
   -0.8089   -4.5382    5.7354 C   0  0  0  0  0  0  0  0  0  0  0  0
   -0.0689   -4.1836    3.4569 C   0  0  0  0  0  0  0  0  0  0  0  0
    0.5840   -3.1698    2.5144 C   0  0  0  0  0  0  0  0  0  0  0  0
   -0.4478   -1.3599    3.7466 C   0  0  0  0  0  0  0  0  0  0  0  0
   -1.1007   -2.3737    4.6891 C   0  0  0  0  0  0  0  0  0  0  0  0
    0.2922   -1.0053    1.4681 C   0  0  0  0  0  0  0  0  0  0  0  0
   -0.7147    0.0874    1.2164 C   0  0  0  0  0  0  0  0  0  0  0  0
   -1.7895    0.0626    1.7778 O   0  0  0  0  0  0  0  0  0  0  0  0
   -0.4208    1.0921    0.3675 N   0  0  0  0  0  0  0  0  0  0  0  0
   -1.3906    2.0515    0.0565 C   0  0  0  0  0  0  0  0  0  0  0  0
   -1.0134    3.3639   -0.2003 C   0  0  0  0  0  0  0  0  0  0  0  0
   -1.9697    4.3107   -0.5121 C   0  0  0  0  0  0  0  0  0  0  0  0
   -3.3050    3.9587   -0.5595 C   0  0  0  0  0  0  0  0  0  0  0  0
   -3.6894    2.6494   -0.2986 C   0  0  0  0  0  0  0  0  0  0  0  0
   -2.7303    1.6947    0.0098 C   0  0  0  0  0  0  0  0  0  0  0  0
   -5.0407    2.2940   -0.3463 N   0  0  0  0  0  0  0  0  0  0  0  0
   -6.0103    3.2033    0.0441 C   0  0  0  0  0  0  0  0  0  0  0  0
   -5.6354    4.3661    0.5580 N   0  0  0  0  0  0  0  0  0  0  0  0
   -6.5311    5.2614    0.9424 C   0  0  0  0  0  0  0  0  0  0  0  0
   -7.8777    4.9744    0.8036 C   0  0  0  0  0  0  0  0  0  0  0  0
   -8.2426    3.7406    0.2587 C   0  0  0  0  0  0  0  0  0  0  0  0
   -7.2870    2.8907   -0.1107 N   0  0  0  0  0  0  0  0  0  0  0  0
   -9.6726    3.3857    0.0893 C   0  0  0  0  0  0  0  0  0  0  0  0
  -10.0385    2.1514   -0.4559 C   0  0  0  0  0  0  0  0  0  0  0  0
  -11.3862    1.8681   -0.5931 C   0  0  0  0  0  0  0  0  0  0  0  0
  -12.3193    2.8063   -0.1903 C   0  0  0  0  0  0  0  0  0  0  0  0
  -11.9438    3.9628    0.3208 N   0  0  0  0  0  0  0  0  0  0  0  0
  -10.6734    4.2747    0.4762 C   0  0  0  0  0  0  0  0  0  0  0  0
   -0.1283   -5.3839    5.8337 H   0  0  0  0  0  0  0  0  0  0  0  0
   -0.9351   -4.0587    6.7061 H   0  0  0  0  0  0  0  0  0  0  0  0
   -1.7758   -4.8899    5.3754 H   0  0  0  0  0  0  0  0  0  0  0  0
   -1.0377   -4.4814    3.0560 H   0  0  0  0  0  0  0  0  0  0  0  0
    0.5720   -5.0606    3.5481 H   0  0  0  0  0  0  0  0  0  0  0  0
    0.6951   -3.6125    1.5246 H   0  0  0  0  0  0  0  0  0  0  0  0
    1.5647   -2.8925    2.9010 H   0  0  0  0  0  0  0  0  0  0  0  0
    0.5210   -1.0621    4.1476 H   0  0  0  0  0  0  0  0  0  0  0  0
   -1.0889   -0.4831    3.6552 H   0  0  0  0  0  0  0  0  0  0  0  0
   -2.0813   -2.6509    4.3022 H   0  0  0  0  0  0  0  0  0  0  0  0
   -1.2119   -1.9310    5.6789 H   0  0  0  0  0  0  0  0  0  0  0  0
    0.5212   -1.5114    0.5303 H   0  0  0  0  0  0  0  0  0  0  0  0
    1.2039   -0.5716    1.8790 H   0  0  0  0  0  0  0  0  0  0  0  0
    0.4643    1.1523   -0.0248 H   0  0  0  0  0  0  0  0  0  0  0  0
    0.0291    3.6432   -0.1597 H   0  0  0  0  0  0  0  0  0  0  0  0
   -1.6735    5.3293   -0.7150 H   0  0  0  0  0  0  0  0  0  0  0  0
   -4.0507    4.7021   -0.7999 H   0  0  0  0  0  0  0  0  0  0  0  0
   -3.0264    0.6760    0.2127 H   0  0  0  0  0  0  0  0  0  0  0  0
   -5.2994    1.4107   -0.6526 H   0  0  0  0  0  0  0  0  0  0  0  0
   -6.2145    6.2056    1.3602 H   0  0  0  0  0  0  0  0  0  0  0  0
   -8.6291    5.6872    1.1097 H   0  0  0  0  0  0  0  0  0  0  0  0
   -9.2885    1.4373   -0.7625 H   0  0  0  0  0  0  0  0  0  0  0  0
  -11.7060    0.9244   -1.0099 H   0  0  0  0  0  0  0  0  0  0  0  0
  -13.3718    2.5884   -0.2956 H   0  0  0  0  0  0  0  0  0  0  0  0
  -10.4051    5.2298    0.9029 H   0  0  0  0  0  0  0  0  0  0  0  0
   -0.2279   -3.5625    4.7886 N   0  3  0  0  0  0  0  0  0  0  0  0
    0.6944   -3.2716    5.1334 H   0  0  0  0  0  0  0  0  0  0  0  0
   -0.2887   -1.9812    2.4148 N   0  3  0  0  0  0  0  0  0  0  0  0
   -1.2110   -2.2722    2.0699 H   0  0  0  0  0  0  0  0  0  0  0  0
  1 29  1  0  0  0  0
  1 30  1  0  0  0  0
  1 31  1  0  0  0  0
  1 54  1  0  0  0  0
  2  3  1  0  0  0  0
  2 32  1  0  0  0  0
  2 33  1  0  0  0  0
  2 54  1  0  0  0  0
  3 34  1  0  0  0  0
  3 35  1  0  0  0  0
  3 56  1  0  0  0  0
  4  5  1  0  0  0  0
  4 36  1  0  0  0  0
  4 37  1  0  0  0  0
  4 56  1  0  0  0  0
  5 38  1  0  0  0  0
  5 39  1  0  0  0  0
  5 54  1  0  0  0  0
  6  7  1  0  0  0  0
  6 40  1  0  0  0  0
  6 41  1  0  0  0  0
  6 56  1  0  0  0  0
  7  8  2  0  0  0  0
  7  9  1  0  0  0  0
  9 10  1  0  0  0  0
  9 42  1  0  0  0  0
 10 15  2  0  0  0  0
 10 11  1  0  0  0  0
 11 12  2  0  0  0  0
 11 43  1  0  0  0  0
 12 13  1  0  0  0  0
 12 44  1  0  0  0  0
 13 14  2  0  0  0  0
 13 45  1  0  0  0  0
 14 15  1  0  0  0  0
 14 16  1  0  0  0  0
 15 46  1  0  0  0  0
 16 17  1  0  0  0  0
 16 47  1  0  0  0  0
 17 22  2  0  0  0  0
 17 18  1  0  0  0  0
 18 19  2  0  0  0  0
 19 20  1  0  0  0  0
 19 48  1  0  0  0  0
 20 21  2  0  0  0  0
 20 49  1  0  0  0  0
 21 22  1  0  0  0  0
 21 23  1  0  0  0  0
 23 28  2  0  0  0  0
 23 24  1  0  0  0  0
 24 25  2  0  0  0  0
 24 50  1  0  0  0  0
 25 26  1  0  0  0  0
 25 51  1  0  0  0  0
 26 27  2  0  0  0  0
 26 52  1  0  0  0  0
 27 28  1  0  0  0  0
 28 53  1  0  0  0  0
 54 55  1  0  0  0  0
 56 57  1  0  0  0  0
M  CHG  2  54   1  56   1
M  END
$$$$
ZINC03832240
  -OEChem-08230709403D

 24 26  0     0  0  0  0  0  0999 V2000
   -1.3712    5.8103    0.0469 C   0  0  0  0  0  0  0  0  0  0  0  0
   -2.5363    5.0457    0.0535 C   0  0  0  0  0  0  0  0  0  0  0  0
   -2.4844    3.6858    0.0456 C   0  0  0  0  0  0  0  0  0  0  0  0
   -1.2387    3.0342    0.0302 C   0  0  0  0  0  0  0  0  0  0  0  0
   -0.0548    3.8140    0.0231 C   0  0  0  0  0  0  0  0  0  0  0  0
   -0.1465    5.2162    0.0320 C   0  0  0  0  0  0  0  0  0  0  0  0
    1.1918    3.1650    0.0077 C   0  0  0  0  0  0  0  0  0  0  0  0
    1.2033    1.7778    0.0001 C   0  0  0  0  0  0  0  0  0  0  0  0
   -0.0126    1.0758    0.0080 C   0  0  0  0  0  0  0  0  0  0  0  0
   -1.1634    1.6992    0.0169 N   0  0  0  0  0  0  0  0  0  0  0  0
    2.4910    1.0415   -0.0156 C   0  0  0  0  0  0  0  0  0  0  0  0
    2.5152   -0.3500   -0.0229 C   0  0  0  0  0  0  0  0  0  0  0  0
    3.7085   -0.9854   -0.0377 C   0  0  0  0  0  0  0  0  0  0  0  0
    4.8623    0.3762   -0.0421 S   0  0  0  0  0  0  0  0  0  0  0  0
    3.6810    1.7143   -0.0291 C   0  0  0  0  0  0  0  0  0  0  0  0
   -1.4409    6.8880    0.0537 H   0  0  0  0  0  0  0  0  0  0  0  0
   -3.4962    5.5405    0.0654 H   0  0  0  0  0  0  0  0  0  0  0  0
   -3.3974    3.1088    0.0516 H   0  0  0  0  0  0  0  0  0  0  0  0
    0.7495    5.8191    0.0265 H   0  0  0  0  0  0  0  0  0  0  0  0
    2.1127    3.7291    0.0015 H   0  0  0  0  0  0  0  0  0  0  0  0
    0.0021   -0.0041    0.0020 H   0  0  0  0  0  0  0  0  0  0  0  0
    1.5942   -0.9140   -0.0171 H   0  0  0  0  0  0  0  0  0  0  0  0
    3.9117   -2.0461   -0.0453 H   0  0  0  0  0  0  0  0  0  0  0  0
    3.8600    2.7794   -0.0303 H   0  0  0  0  0  0  0  0  0  0  0  0
  1  6  2  0  0  0  0
  1  2  1  0  0  0  0
  1 16  1  0  0  0  0
  2  3  2  0  0  0  0
  2 17  1  0  0  0  0
  3  4  1  0  0  0  0
  3 18  1  0  0  0  0
  4 10  2  0  0  0  0
  4  5  1  0  0  0  0
  5  6  1  0  0  0  0
  5  7  2  0  0  0  0
  6 19  1  0  0  0  0
  7  8  1  0  0  0  0
  7 20  1  0  0  0  0
  8  9  2  0  0  0  0
  8 11  1  0  0  0  0
  9 10  1  0  0  0  0
  9 21  1  0  0  0  0
 11 15  2  0  0  0  0
 11 12  1  0  0  0  0
 12 13  2  0  0  0  0
 12 22  1  0  0  0  0
 13 14  1  0  0  0  0
 13 23  1  0  0  0  0
 14 15  1  0  0  0  0
 15 24  1  0  0  0  0
M  END
$$$$
ZINC03832241
  -OEChem-08230709403D

 41 43  0     0  0  0  0  0  0999 V2000
   -7.2569   -0.4225    0.0330 C   0  0  0  0  0  0  0  0  0  0  0  0
   -6.0409   -1.1731    0.0230 O   0  0  0  0  0  0  0  0  0  0  0  0
   -4.8801   -0.4668    0.0217 C   0  0  0  0  0  0  0  0  0  0  0  0
   -4.9136    0.9213    0.0298 C   0  0  0  0  0  0  0  0  0  0  0  0
   -3.7373    1.6408    0.0285 C   0  0  0  0  0  0  0  0  0  0  0  0
   -2.5135    0.9731    0.0189 C   0  0  0  0  0  0  0  0  0  0  0  0
   -2.4831   -0.4203    0.0050 C   0  0  0  0  0  0  0  0  0  0  0  0
   -3.6631   -1.1344    0.0117 C   0  0  0  0  0  0  0  0  0  0  0  0
   -3.6317   -2.6143    0.0031 N   0  3  0  0  0  0  0  0  0  0  0  0
   -2.5643   -3.2008   -0.0057 O   0  0  0  0  0  0  0  0  0  0  0  0
   -4.6734   -3.2456    0.0047 O   0  5  0  0  0  0  0  0  0  0  0  0
   -1.2463    1.7441    0.0175 C   0  0  0  0  0  0  0  0  0  0  0  0
   -1.2723    3.1317    0.0321 C   0  0  0  0  0  0  0  0  0  0  0  0
   -0.0448    3.8147    0.0231 C   0  0  0  0  0  0  0  0  0  0  0  0
    0.0053    5.2196    0.0292 C   0  0  0  0  0  0  0  0  0  0  0  0
    1.2138    5.8519    0.0201 C   0  0  0  0  0  0  0  0  0  0  0  0
    2.4078    5.1143    0.0045 C   0  0  0  0  0  0  0  0  0  0  0  0
    2.3890    3.7500   -0.0017 C   0  0  0  0  0  0  0  0  0  0  0  0
    1.1607    3.0674    0.0074 C   0  0  0  0  0  0  0  0  0  0  0  0
    1.1213    1.7305    0.0006 N   0  0  0  0  0  0  0  0  0  0  0  0
   -0.0126    1.0758    0.0080 C   0  0  0  0  0  0  0  0  0  0  0  0
    3.5990    5.7680   -0.0048 O   0  0  0  0  0  0  0  0  0  0  0  0
    4.7802    4.9639   -0.0210 C   0  0  0  0  0  0  0  0  0  0  0  0
    1.2623    7.2104    0.0265 O   0  0  0  0  0  0  0  0  0  0  0  0
    0.0131    7.9041    0.0423 C   0  0  0  0  0  0  0  0  0  0  0  0
   -8.1058   -1.1062    0.0330 H   0  0  0  0  0  0  0  0  0  0  0  0
   -7.2921    0.2004    0.9267 H   0  0  0  0  0  0  0  0  0  0  0  0
   -7.3003    0.2106   -0.8532 H   0  0  0  0  0  0  0  0  0  0  0  0
   -5.8620    1.4380    0.0368 H   0  0  0  0  0  0  0  0  0  0  0  0
   -3.7641    2.7204    0.0344 H   0  0  0  0  0  0  0  0  0  0  0  0
   -1.5366   -0.9403   -0.0069 H   0  0  0  0  0  0  0  0  0  0  0  0
   -2.2084    3.6703    0.0443 H   0  0  0  0  0  0  0  0  0  0  0  0
   -0.9084    5.7952    0.0415 H   0  0  0  0  0  0  0  0  0  0  0  0
    3.3161    3.1960   -0.0140 H   0  0  0  0  0  0  0  0  0  0  0  0
    0.0021   -0.0041    0.0020 H   0  0  0  0  0  0  0  0  0  0  0  0
    5.6588    5.6089   -0.0271 H   0  0  0  0  0  0  0  0  0  0  0  0
    4.8007    4.3304    0.8658 H   0  0  0  0  0  0  0  0  0  0  0  0
    4.7820    4.3389   -0.9140 H   0  0  0  0  0  0  0  0  0  0  0  0
   -0.5627    7.6358   -0.8434 H   0  0  0  0  0  0  0  0  0  0  0  0
   -0.5452    7.6268    0.9365 H   0  0  0  0  0  0  0  0  0  0  0  0
    0.1944    8.9790    0.0460 H   0  0  0  0  0  0  0  0  0  0  0  0
  1  2  1  0  0  0  0
  1 26  1  0  0  0  0
  1 27  1  0  0  0  0
  1 28  1  0  0  0  0
  2  3  1  0  0  0  0
  3  8  2  0  0  0  0
  3  4  1  0  0  0  0
  4  5  2  0  0  0  0
  4 29  1  0  0  0  0
  5  6  1  0  0  0  0
  5 30  1  0  0  0  0
  6  7  2  0  0  0  0
  6 12  1  0  0  0  0
  7  8  1  0  0  0  0
  7 31  1  0  0  0  0
  8  9  1  0  0  0  0
  9 10  2  0  0  0  0
  9 11  1  0  0  0  0
 12 21  2  0  0  0  0
 12 13  1  0  0  0  0
 13 14  2  0  0  0  0
 13 32  1  0  0  0  0
 14 19  1  0  0  0  0
 14 15  1  0  0  0  0
 15 16  2  0  0  0  0
 15 33  1  0  0  0  0
 16 17  1  0  0  0  0
 16 24  1  0  0  0  0
 17 18  2  0  0  0  0
 17 22  1  0  0  0  0
 18 19  1  0  0  0  0
 18 34  1  0  0  0  0
 19 20  2  0  0  0  0
 20 21  1  0  0  0  0
 21 35  1  0  0  0  0
 22 23  1  0  0  0  0
 23 36  1  0  0  0  0
 23 37  1  0  0  0  0
 23 38  1  0  0  0  0
 24 25  1  0  0  0  0
 25 39  1  0  0  0  0
 25 40  1  0  0  0  0
 25 41  1  0  0  0  0
M  CHG  2   9   1  11  -1
M  END
$$$$
ZINC03832242
  -OEChem-08230709403D

 52 55  0     0  0  0  0  0  0999 V2000
   -3.4049    3.7848    0.0395 C   0  0  0  0  0  0  0  0  0  0  0  0
   -3.2972    2.7615   -0.8843 C   0  0  0  0  0  0  0  0  0  0  0  0
   -2.1756    1.9556   -0.8967 C   0  0  0  0  0  0  0  0  0  0  0  0
   -1.1555    2.1739    0.0196 C   0  0  0  0  0  0  0  0  0  0  0  0
   -1.2691    3.1986    0.9496 C   0  0  0  0  0  0  0  0  0  0  0  0
   -2.3904    4.0050    0.9530 C   0  0  0  0  0  0  0  0  0  0  0  0
   -0.0164    1.3581    0.0095 N   0  0  0  0  0  0  0  0  0  0  0  0
    0.0021   -0.0041    0.0020 C   0  0  0  0  0  0  0  0  0  0  0  0
    1.2301   -0.4342   -0.0120 N   0  0  0  0  0  0  0  0  0  0  0  0
    2.0853    0.6208   -0.0145 C   0  0  0  0  0  0  0  0  0  0  0  0
    1.3001    1.7861   -0.0008 C   0  0  0  0  0  0  0  0  0  0  0  0
    1.9078    3.0332    0.0006 C   0  0  0  0  0  0  0  0  0  0  0  0
    3.2830    3.1275   -0.0120 C   0  0  0  0  0  0  0  0  0  0  0  0
    4.0676    1.9781   -0.0261 C   0  0  0  0  0  0  0  0  0  0  0  0
    3.4782    0.7294   -0.0272 C   0  0  0  0  0  0  0  0  0  0  0  0
    5.4231    2.0854   -0.0385 O   0  0  0  0  0  0  0  0  0  0  0  0
    5.9693    3.4059   -0.0366 C   0  0  0  0  0  0  0  0  0  0  0  0
    7.4972    3.3258   -0.0516 C   0  0  0  0  0  0  0  0  0  0  0  0
    8.0821    4.7396   -0.0496 C   0  0  0  0  0  0  0  0  0  0  0  0
    9.6099    4.6594   -0.0646 C   0  0  0  0  0  0  0  0  0  0  0  0
    9.8524    6.7208   -1.3133 C   0  0  0  0  0  0  0  0  0  0  0  0
   10.4036    8.1474   -1.2445 C   0  0  0  0  0  0  0  0  0  0  0  0
   11.8110    8.0979   -0.9949 O   0  0  0  0  0  0  0  0  0  0  0  0
   12.1575    7.4198    0.2157 C   0  0  0  0  0  0  0  0  0  0  0  0
   11.6241    5.9858    0.1616 C   0  0  0  0  0  0  0  0  0  0  0  0
   -4.2829    4.4137    0.0472 H   0  0  0  0  0  0  0  0  0  0  0  0
   -4.0909    2.5924   -1.5970 H   0  0  0  0  0  0  0  0  0  0  0  0
   -2.0920    1.1567   -1.6187 H   0  0  0  0  0  0  0  0  0  0  0  0
   -0.4793    3.3680    1.6665 H   0  0  0  0  0  0  0  0  0  0  0  0
   -2.4774    4.8050    1.6733 H   0  0  0  0  0  0  0  0  0  0  0  0
   -0.8746   -0.6349    0.0070 H   0  0  0  0  0  0  0  0  0  0  0  0
    1.3044    3.9288    0.0119 H   0  0  0  0  0  0  0  0  0  0  0  0
    3.7544    4.0992   -0.0106 H   0  0  0  0  0  0  0  0  0  0  0  0
    4.0913   -0.1596   -0.0382 H   0  0  0  0  0  0  0  0  0  0  0  0
    5.6250    3.9428   -0.9205 H   0  0  0  0  0  0  0  0  0  0  0  0
    5.6420    3.9333    0.8594 H   0  0  0  0  0  0  0  0  0  0  0  0
    7.8415    2.7888    0.8323 H   0  0  0  0  0  0  0  0  0  0  0  0
    7.8246    2.7984   -0.9476 H   0  0  0  0  0  0  0  0  0  0  0  0
    7.7377    5.2765   -0.9335 H   0  0  0  0  0  0  0  0  0  0  0  0
    7.7547    5.2669    0.8464 H   0  0  0  0  0  0  0  0  0  0  0  0
    9.9543    4.1225    0.8193 H   0  0  0  0  0  0  0  0  0  0  0  0
    9.9373    4.1321   -0.9606 H   0  0  0  0  0  0  0  0  0  0  0  0
   10.3070    6.1951   -2.1530 H   0  0  0  0  0  0  0  0  0  0  0  0
    8.7711    6.7544   -1.4464 H   0  0  0  0  0  0  0  0  0  0  0  0
    9.9099    8.6899   -0.4382 H   0  0  0  0  0  0  0  0  0  0  0  0
   10.2196    8.6548   -2.1915 H   0  0  0  0  0  0  0  0  0  0  0  0
   11.7147    7.9411    1.0644 H   0  0  0  0  0  0  0  0  0  0  0  0
   13.2418    7.4009    0.3247 H   0  0  0  0  0  0  0  0  0  0  0  0
   11.8359    5.4828    1.1052 H   0  0  0  0  0  0  0  0  0  0  0  0
   12.1069    5.4483   -0.6545 H   0  0  0  0  0  0  0  0  0  0  0  0
   10.1607    6.0318   -0.0427 N   0  3  0  0  0  0  0  0  0  0  0  0
    9.7313    6.5514    0.7318 H   0  0  0  0  0  0  0  0  0  0  0  0
  1  6  2  0  0  0  0
  1  2  1  0  0  0  0
  1 26  1  0  0  0  0
  2  3  2  0  0  0  0
  2 27  1  0  0  0  0
  3  4  1  0  0  0  0
  3 28  1  0  0  0  0
  4  5  2  0  0  0  0
  4  7  1  0  0  0  0
  5  6  1  0  0  0  0
  5 29  1  0  0  0  0
  6 30  1  0  0  0  0
  7 11  1  0  0  0  0
  7  8  1  0  0  0  0
  8  9  2  0  0  0  0
  8 31  1  0  0  0  0
  9 10  1  0  0  0  0
 10 15  2  0  0  0  0
 10 11  1  0  0  0  0
 11 12  2  0  0  0  0
 12 13  1  0  0  0  0
 12 32  1  0  0  0  0
 13 14  2  0  0  0  0
 13 33  1  0  0  0  0
 14 15  1  0  0  0  0
 14 16  1  0  0  0  0
 15 34  1  0  0  0  0
 16 17  1  0  0  0  0
 17 18  1  0  0  0  0
 17 35  1  0  0  0  0
 17 36  1  0  0  0  0
 18 19  1  0  0  0  0
 18 37  1  0  0  0  0
 18 38  1  0  0  0  0
 19 20  1  0  0  0  0
 19 39  1  0  0  0  0
 19 40  1  0  0  0  0
 20 41  1  0  0  0  0
 20 42  1  0  0  0  0
 20 51  1  0  0  0  0
 21 22  1  0  0  0  0
 21 43  1  0  0  0  0
 21 44  1  0  0  0  0
 21 51  1  0  0  0  0
 22 23  1  0  0  0  0
 22 45  1  0  0  0  0
 22 46  1  0  0  0  0
 23 24  1  0  0  0  0
 24 25  1  0  0  0  0
 24 47  1  0  0  0  0
 24 48  1  0  0  0  0
 25 49  1  0  0  0  0
 25 50  1  0  0  0  0
 25 51  1  0  0  0  0
 51 52  1  0  0  0  0
M  CHG  1  51   1
M  END
$$$$
ZINC03832243
  -OEChem-08230709403D

 41 44  0     0  0  0  0  0  0999 V2000
    2.2933    6.3642   -2.2040 C   0  0  0  0  0  0  0  0  0  0  0  0
    1.9604    5.6596   -0.9635 N   0  0  0  0  0  0  0  0  0  0  0  0
    1.4808    6.3656    0.1107 C   0  0  0  0  0  0  0  0  0  0  0  0
    1.1557    5.7019    1.3137 C   0  0  0  0  0  0  0  0  0  0  0  0
    1.3214    4.3023    1.4211 C   0  0  0  0  0  0  0  0  0  0  0  0
    1.8002    3.6061    0.3436 C   0  0  0  0  0  0  0  0  0  0  0  0
    2.1335    4.3260   -0.8873 C   0  0  0  0  0  0  0  0  0  0  0  0
    2.5647    3.7150   -1.8488 O   0  0  0  0  0  0  0  0  0  0  0  0
    1.9851    2.1382    0.4245 C   0  0  0  0  0  0  0  0  0  0  0  0
    0.8812    1.3014    0.5852 C   0  0  0  0  0  0  0  0  0  0  0  0
    1.0598   -0.0649    0.6594 C   0  0  0  0  0  0  0  0  0  0  0  0
    2.3306   -0.6049    0.5741 C   0  0  0  0  0  0  0  0  0  0  0  0
    3.4295    0.2202    0.4146 C   0  0  0  0  0  0  0  0  0  0  0  0
    3.2638    1.5881    0.3400 C   0  0  0  0  0  0  0  0  0  0  0  0
    0.6692    6.4610    2.3886 C   0  0  0  0  0  0  0  0  0  0  0  0
    0.5351    7.7647    2.2318 N   0  0  0  0  0  0  0  0  0  0  0  0
    0.8511    8.3555    1.0847 C   0  0  0  0  0  0  0  0  0  0  0  0
    1.3137    7.6815    0.0429 N   0  0  0  0  0  0  0  0  0  0  0  0
    0.6918    9.7235    0.9747 N   0  0  0  0  0  0  0  0  0  0  0  0
    0.0985   10.4441    2.0156 C   0  0  0  0  0  0  0  0  0  0  0  0
   -0.9135    9.8677    2.7726 C   0  0  0  0  0  0  0  0  0  0  0  0
   -1.4934   10.5802    3.8038 C   0  0  0  0  0  0  0  0  0  0  0  0
   -1.0753   11.8699    4.0759 C   0  0  0  0  0  0  0  0  0  0  0  0
   -0.0723   12.4489    3.3202 C   0  0  0  0  0  0  0  0  0  0  0  0
    0.5159   11.7399    2.2913 C   0  0  0  0  0  0  0  0  0  0  0  0
    3.3365    6.6787   -2.1745 H   0  0  0  0  0  0  0  0  0  0  0  0
    2.1383    5.6983   -3.0529 H   0  0  0  0  0  0  0  0  0  0  0  0
    1.6526    7.2400   -2.3076 H   0  0  0  0  0  0  0  0  0  0  0  0
    1.0739    3.7898    2.3389 H   0  0  0  0  0  0  0  0  0  0  0  0
   -0.1118    1.7215    0.6471 H   0  0  0  0  0  0  0  0  0  0  0  0
    0.2056   -0.7140    0.7839 H   0  0  0  0  0  0  0  0  0  0  0  0
    2.4654   -1.6748    0.6327 H   0  0  0  0  0  0  0  0  0  0  0  0
    4.4192   -0.2071    0.3486 H   0  0  0  0  0  0  0  0  0  0  0  0
    4.1225    2.2312    0.2162 H   0  0  0  0  0  0  0  0  0  0  0  0
    0.4102    5.9887    3.3247 H   0  0  0  0  0  0  0  0  0  0  0  0
    0.9916   10.1840    0.1754 H   0  0  0  0  0  0  0  0  0  0  0  0
   -1.2436    8.8621    2.5577 H   0  0  0  0  0  0  0  0  0  0  0  0
   -2.2775   10.1312    4.3954 H   0  0  0  0  0  0  0  0  0  0  0  0
   -1.5333   12.4264    4.8803 H   0  0  0  0  0  0  0  0  0  0  0  0
    0.2517   13.4565    3.5351 H   0  0  0  0  0  0  0  0  0  0  0  0
    1.2991   12.1926    1.7015 H   0  0  0  0  0  0  0  0  0  0  0  0
  1  2  1  0  0  0  0
  1 26  1  0  0  0  0
  1 27  1  0  0  0  0
  1 28  1  0  0  0  0
  2  7  1  0  0  0  0
  2  3  1  0  0  0  0
  3 18  2  0  0  0  0
  3  4  1  0  0  0  0
  4  5  1  0  0  0  0
  4 15  2  0  0  0  0
  5  6  2  0  0  0  0
  5 29  1  0  0  0  0
  6  7  1  0  0  0  0
  6  9  1  0  0  0  0
  7  8  2  0  0  0  0
  9 14  2  0  0  0  0
  9 10  1  0  0  0  0
 10 11  2  0  0  0  0
 10 30  1  0  0  0  0
 11 12  1  0  0  0  0
 11 31  1  0  0  0  0
 12 13  2  0  0  0  0
 12 32  1  0  0  0  0
 13 14  1  0  0  0  0
 13 33  1  0  0  0  0
 14 34  1  0  0  0  0
 15 16  1  0  0  0  0
 15 35  1  0  0  0  0
 16 17  2  0  0  0  0
 17 18  1  0  0  0  0
 17 19  1  0  0  0  0
 19 20  1  0  0  0  0
 19 36  1  0  0  0  0
 20 25  2  0  0  0  0
 20 21  1  0  0  0  0
 21 22  2  0  0  0  0
 21 37  1  0  0  0  0
 22 23  1  0  0  0  0
 22 38  1  0  0  0  0
 23 24  2  0  0  0  0
 23 39  1  0  0  0  0
 24 25  1  0  0  0  0
 24 40  1  0  0  0  0
 25 41  1  0  0  0  0
M  END
$$$$
ZINC03832244
  -OEChem-08230709403D

 52 55  0     0  0  0  0  0  0999 V2000
    4.9014   -3.9972    0.1405 C   0  0  0  0  0  0  0  0  0  0  0  0
    3.5916   -4.7425    0.1416 C   0  0  0  0  0  0  0  0  0  0  0  0
    3.5793   -6.1162    0.2900 C   0  0  0  0  0  0  0  0  0  0  0  0
    2.3812   -6.8038    0.2854 C   0  0  0  0  0  0  0  0  0  0  0  0
    1.1834   -6.1147    0.1377 C   0  0  0  0  0  0  0  0  0  0  0  0
    1.1918   -4.7348   -0.0057 C   0  0  0  0  0  0  0  0  0  0  0  0
    2.3973   -4.0470   -0.0011 C   0  0  0  0  0  0  0  0  0  0  0  0
    2.4102   -2.6565   -0.1459 N   0  0  0  0  0  0  0  0  0  0  0  0
    1.3626   -2.0172   -0.7886 C   0  0  0  0  0  0  0  0  0  0  0  0
    0.4236   -2.7461   -1.3749 N   0  0  0  0  0  0  0  0  0  0  0  0
   -0.5927   -2.1731   -1.9994 C   0  0  0  0  0  0  0  0  0  0  0  0
   -0.6718   -0.7920   -2.0380 C   0  0  0  0  0  0  0  0  0  0  0  0
    0.3326   -0.0501   -1.4112 C   0  0  0  0  0  0  0  0  0  0  0  0
    1.3283   -0.6942   -0.8066 N   0  0  0  0  0  0  0  0  0  0  0  0
    0.2932    1.4324   -1.4246 C   0  0  0  0  0  0  0  0  0  0  0  0
    1.2979    2.1755   -0.7976 C   0  0  0  0  0  0  0  0  0  0  0  0
    1.2156    3.5565   -0.8388 C   0  0  0  0  0  0  0  0  0  0  0  0
    0.1520    4.1517   -1.4928 C   0  0  0  0  0  0  0  0  0  0  0  0
   -0.7812    3.4241   -2.0755 N   0  0  0  0  0  0  0  0  0  0  0  0
   -0.7426    2.1074   -2.0672 C   0  0  0  0  0  0  0  0  0  0  0  0
   -0.0291   -6.8116    0.1331 N   0  0  0  0  0  0  0  0  0  0  0  0
   -0.0687   -8.0922   -0.2852 C   0  0  0  0  0  0  0  0  0  0  0  0
    0.9286   -8.6120   -0.7475 O   0  0  0  0  0  0  0  0  0  0  0  0
   -1.3220   -8.8632   -0.1822 C   0  0  0  0  0  0  0  0  0  0  0  0
   -2.4688   -8.2718    0.3537 C   0  0  0  0  0  0  0  0  0  0  0  0
   -3.6375   -8.9961    0.4432 C   0  0  0  0  0  0  0  0  0  0  0  0
   -3.6787  -10.3126    0.0132 C   0  0  0  0  0  0  0  0  0  0  0  0
   -2.5516  -10.9108   -0.5139 C   0  0  0  0  0  0  0  0  0  0  0  0
   -1.3678  -10.1951   -0.6160 C   0  0  0  0  0  0  0  0  0  0  0  0
   -0.2593  -10.7819   -1.1329 O   0  0  0  0  0  0  0  0  0  0  0  0
   -0.3817  -12.1419   -1.5540 C   0  0  0  0  0  0  0  0  0  0  0  0
    5.1573   -3.7108    1.1606 H   0  0  0  0  0  0  0  0  0  0  0  0
    5.6842   -4.6388   -0.2640 H   0  0  0  0  0  0  0  0  0  0  0  0
    4.8100   -3.1029   -0.4759 H   0  0  0  0  0  0  0  0  0  0  0  0
    4.5087   -6.6540    0.4053 H   0  0  0  0  0  0  0  0  0  0  0  0
    2.3753   -7.8780    0.3970 H   0  0  0  0  0  0  0  0  0  0  0  0
    0.2624   -4.1971   -0.1210 H   0  0  0  0  0  0  0  0  0  0  0  0
    3.1527   -2.1394    0.2038 H   0  0  0  0  0  0  0  0  0  0  0  0
   -1.3525   -2.7768   -2.4734 H   0  0  0  0  0  0  0  0  0  0  0  0
   -1.4908   -0.2992   -2.5407 H   0  0  0  0  0  0  0  0  0  0  0  0
    2.1172    1.6844   -0.2936 H   0  0  0  0  0  0  0  0  0  0  0  0
    1.9738    4.1628   -0.3657 H   0  0  0  0  0  0  0  0  0  0  0  0
    0.0848    5.2290   -1.5272 H   0  0  0  0  0  0  0  0  0  0  0  0
   -1.5231    1.5460   -2.5591 H   0  0  0  0  0  0  0  0  0  0  0  0
   -0.8415   -6.3733    0.4310 H   0  0  0  0  0  0  0  0  0  0  0  0
   -2.4403   -7.2472    0.6939 H   0  0  0  0  0  0  0  0  0  0  0  0
   -4.5243   -8.5370    0.8544 H   0  0  0  0  0  0  0  0  0  0  0  0
   -4.5978  -10.8743    0.0912 H   0  0  0  0  0  0  0  0  0  0  0  0
   -2.5916  -11.9374   -0.8469 H   0  0  0  0  0  0  0  0  0  0  0  0
   -0.6715  -12.7606   -0.7047 H   0  0  0  0  0  0  0  0  0  0  0  0
   -1.1414  -12.2143   -2.3323 H   0  0  0  0  0  0  0  0  0  0  0  0
    0.5745  -12.4882   -1.9463 H   0  0  0  0  0  0  0  0  0  0  0  0
  1  2  1  0  0  0  0
  1 32  1  0  0  0  0
  1 33  1  0  0  0  0
  1 34  1  0  0  0  0
  2  7  2  0  0  0  0
  2  3  1  0  0  0  0
  3  4  2  0  0  0  0
  3 35  1  0  0  0  0
  4  5  1  0  0  0  0
  4 36  1  0  0  0  0
  5  6  2  0  0  0  0
  5 21  1  0  0  0  0
  6  7  1  0  0  0  0
  6 37  1  0  0  0  0
  7  8  1  0  0  0  0
  8  9  1  0  0  0  0
  8 38  1  0  0  0  0
  9 14  2  0  0  0  0
  9 10  1  0  0  0  0
 10 11  2  0  0  0  0
 11 12  1  0  0  0  0
 11 39  1  0  0  0  0
 12 13  2  0  0  0  0
 12 40  1  0  0  0  0
 13 14  1  0  0  0  0
 13 15  1  0  0  0  0
 15 20  2  0  0  0  0
 15 16  1  0  0  0  0
 16 17  2  0  0  0  0
 16 41  1  0  0  0  0
 17 18  1  0  0  0  0
 17 42  1  0  0  0  0
 18 19  2  0  0  0  0
 18 43  1  0  0  0  0
 19 20  1  0  0  0  0
 20 44  1  0  0  0  0
 21 22  1  0  0  0  0
 21 45  1  0  0  0  0
 22 23  2  0  0  0  0
 22 24  1  0  0  0  0
 24 29  2  0  0  0  0
 24 25  1  0  0  0  0
 25 26  2  0  0  0  0
 25 46  1  0  0  0  0
 26 27  1  0  0  0  0
 26 47  1  0  0  0  0
 27 28  2  0  0  0  0
 27 48  1  0  0  0  0
 28 29  1  0  0  0  0
 28 49  1  0  0  0  0
 29 30  1  0  0  0  0
 30 31  1  0  0  0  0
 31 50  1  0  0  0  0
 31 51  1  0  0  0  0
 31 52  1  0  0  0  0
M  END
$$$$
ZINC03832245
  -OEChem-08230709403D

 34 36  0     0  0  0  0  0  0999 V2000
   -2.6864    8.2706    0.0649 C   0  0  0  0  0  0  0  0  0  0  0  0
   -3.9211    7.5512    0.0670 O   0  0  0  0  0  0  0  0  0  0  0  0
   -3.8445    6.1939    0.0579 C   0  0  0  0  0  0  0  0  0  0  0  0
   -2.6229    5.5866    0.0469 C   0  0  0  0  0  0  0  0  0  0  0  0
   -2.5438    4.1835    0.0379 C   0  0  0  0  0  0  0  0  0  0  0  0
   -1.3022    3.5259    0.0333 C   0  0  0  0  0  0  0  0  0  0  0  0
   -1.2996    2.1382    0.0199 C   0  0  0  0  0  0  0  0  0  0  0  0
   -2.5196    1.4442    0.0220 C   0  0  0  0  0  0  0  0  0  0  0  0
   -3.6666    2.0749    0.0318 N   0  0  0  0  0  0  0  0  0  0  0  0
   -3.7337    3.4112    0.0399 C   0  0  0  0  0  0  0  0  0  0  0  0
   -4.9755    4.0677    0.0510 C   0  0  0  0  0  0  0  0  0  0  0  0
   -5.0226    5.4318    0.0595 C   0  0  0  0  0  0  0  0  0  0  0  0
   -6.2271    6.0604    0.0702 O   0  0  0  0  0  0  0  0  0  0  0  0
   -7.3913    5.2319    0.0718 C   0  0  0  0  0  0  0  0  0  0  0  0
   -0.0169    1.3938    0.0097 C   0  0  0  0  0  0  0  0  0  0  0  0
    1.2062    2.0708    0.0017 C   0  0  0  0  0  0  0  0  0  0  0  0
    2.3759    1.3394   -0.0139 C   0  0  0  0  0  0  0  0  0  0  0  0
    2.3497    0.0203   -0.0207 N   0  0  0  0  0  0  0  0  0  0  0  0
    1.2174   -0.6568   -0.0131 C   0  0  0  0  0  0  0  0  0  0  0  0
    0.0021   -0.0041    0.0020 C   0  0  0  0  0  0  0  0  0  0  0  0
   -2.1089    8.0040    0.9500 H   0  0  0  0  0  0  0  0  0  0  0  0
   -2.1187    8.0153   -0.8299 H   0  0  0  0  0  0  0  0  0  0  0  0
   -2.8899    9.3415    0.0728 H   0  0  0  0  0  0  0  0  0  0  0  0
   -1.7212    6.1811    0.0451 H   0  0  0  0  0  0  0  0  0  0  0  0
   -0.3774    4.0838    0.0361 H   0  0  0  0  0  0  0  0  0  0  0  0
   -2.5118    0.3643    0.0156 H   0  0  0  0  0  0  0  0  0  0  0  0
   -5.8908    3.4945    0.0530 H   0  0  0  0  0  0  0  0  0  0  0  0
   -7.3945    4.6080   -0.8220 H   0  0  0  0  0  0  0  0  0  0  0  0
   -7.3844    4.5971    0.9579 H   0  0  0  0  0  0  0  0  0  0  0  0
   -8.2832    5.8584    0.0806 H   0  0  0  0  0  0  0  0  0  0  0  0
    1.2351    3.1504    0.0068 H   0  0  0  0  0  0  0  0  0  0  0  0
    3.3257    1.8535   -0.0206 H   0  0  0  0  0  0  0  0  0  0  0  0
    1.2422   -1.7365   -0.0191 H   0  0  0  0  0  0  0  0  0  0  0  0
   -0.9210   -0.5647    0.0082 H   0  0  0  0  0  0  0  0  0  0  0  0
  1  2  1  0  0  0  0
  1 21  1  0  0  0  0
  1 22  1  0  0  0  0
  1 23  1  0  0  0  0
  2  3  1  0  0  0  0
  3 12  2  0  0  0  0
  3  4  1  0  0  0  0
  4  5  2  0  0  0  0
  4 24  1  0  0  0  0
  5 10  1  0  0  0  0
  5  6  1  0  0  0  0
  6  7  2  0  0  0  0
  6 25  1  0  0  0  0
  7  8  1  0  0  0  0
  7 15  1  0  0  0  0
  8  9  2  0  0  0  0
  8 26  1  0  0  0  0
  9 10  1  0  0  0  0
 10 11  2  0  0  0  0
 11 12  1  0  0  0  0
 11 27  1  0  0  0  0
 12 13  1  0  0  0  0
 13 14  1  0  0  0  0
 14 28  1  0  0  0  0
 14 29  1  0  0  0  0
 14 30  1  0  0  0  0
 15 20  2  0  0  0  0
 15 16  1  0  0  0  0
 16 17  2  0  0  0  0
 16 31  1  0  0  0  0
 17 18  1  0  0  0  0
 17 32  1  0  0  0  0
 18 19  2  0  0  0  0
 19 20  1  0  0  0  0
 19 33  1  0  0  0  0
 20 34  1  0  0  0  0
M  END
$$$$
ZINC03832246
  -OEChem-08230709403D

 26 28  0     0  0  0  0  0  0999 V2000
   -2.6268    5.5852    0.0453 C   0  0  0  0  0  0  0  0  0  0  0  0
   -3.8473    6.1882    0.0548 C   0  0  0  0  0  0  0  0  0  0  0  0
   -5.0183    5.4312    0.0556 C   0  0  0  0  0  0  0  0  0  0  0  0
   -4.9748    4.0693    0.0476 C   0  0  0  0  0  0  0  0  0  0  0  0
   -3.7340    3.4104    0.0380 C   0  0  0  0  0  0  0  0  0  0  0  0
   -2.5449    4.1826    0.0369 C   0  0  0  0  0  0  0  0  0  0  0  0
   -1.3023    3.5253    0.0332 C   0  0  0  0  0  0  0  0  0  0  0  0
   -1.2997    2.1382    0.0199 C   0  0  0  0  0  0  0  0  0  0  0  0
   -2.5202    1.4439    0.0220 C   0  0  0  0  0  0  0  0  0  0  0  0
   -3.6670    2.0743    0.0304 N   0  0  0  0  0  0  0  0  0  0  0  0
   -0.0169    1.3937    0.0097 C   0  0  0  0  0  0  0  0  0  0  0  0
    1.2062    2.0707    0.0017 C   0  0  0  0  0  0  0  0  0  0  0  0
    2.3759    1.3393   -0.0134 C   0  0  0  0  0  0  0  0  0  0  0  0
    2.3497    0.0203   -0.0203 N   0  0  0  0  0  0  0  0  0  0  0  0
    1.2175   -0.6568   -0.0131 C   0  0  0  0  0  0  0  0  0  0  0  0
    0.0021   -0.0041    0.0020 C   0  0  0  0  0  0  0  0  0  0  0  0
   -6.5560    6.2366    0.0674 Cl  0  0  0  0  0  0  0  0  0  0  0  0
   -1.7265    6.1817    0.0448 H   0  0  0  0  0  0  0  0  0  0  0  0
   -3.9094    7.2664    0.0616 H   0  0  0  0  0  0  0  0  0  0  0  0
   -5.8914    3.4981    0.0490 H   0  0  0  0  0  0  0  0  0  0  0  0
   -0.3777    4.0833    0.0367 H   0  0  0  0  0  0  0  0  0  0  0  0
   -2.5123    0.3640    0.0160 H   0  0  0  0  0  0  0  0  0  0  0  0
    1.2350    3.1503    0.0068 H   0  0  0  0  0  0  0  0  0  0  0  0
    3.3257    1.8534   -0.0194 H   0  0  0  0  0  0  0  0  0  0  0  0
    1.2423   -1.7365   -0.0195 H   0  0  0  0  0  0  0  0  0  0  0  0
   -0.9210   -0.5647    0.0082 H   0  0  0  0  0  0  0  0  0  0  0  0
  1  6  2  0  0  0  0
  1  2  1  0  0  0  0
  1 18  1  0  0  0  0
  2  3  2  0  0  0  0
  2 19  1  0  0  0  0
  3  4  1  0  0  0  0
  3 17  1  0  0  0  0
  4  5  2  0  0  0  0
  4 20  1  0  0  0  0
  5 10  1  0  0  0  0
  5  6  1  0  0  0  0
  6  7  1  0  0  0  0
  7  8  2  0  0  0  0
  7 21  1  0  0  0  0
  8  9  1  0  0  0  0
  8 11  1  0  0  0  0
  9 10  2  0  0  0  0
  9 22  1  0  0  0  0
 11 16  2  0  0  0  0
 11 12  1  0  0  0  0
 12 13  2  0  0  0  0
 12 23  1  0  0  0  0
 13 14  1  0  0  0  0
 13 24  1  0  0  0  0
 14 15  2  0  0  0  0
 15 16  1  0  0  0  0
 15 25  1  0  0  0  0
 16 26  1  0  0  0  0
M  END
$$$$
ZINC03832247
  -OEChem-08230709403D

 34 36  0     0  0  0  0  0  0999 V2000
    4.7821   -0.1239   -0.0453 C   0  0  0  0  0  0  0  0  0  0  0  0
    4.7843    1.3050   -0.0376 O   0  0  0  0  0  0  0  0  0  0  0  0
    3.5740    1.9240   -0.0222 C   0  0  0  0  0  0  0  0  0  0  0  0
    2.4332    1.1759   -0.0149 C   0  0  0  0  0  0  0  0  0  0  0  0
    1.1820    1.8157    0.0005 C   0  0  0  0  0  0  0  0  0  0  0  0
   -0.0126    1.0758    0.0080 C   0  0  0  0  0  0  0  0  0  0  0  0
   -1.2115    1.7740    0.0173 C   0  0  0  0  0  0  0  0  0  0  0  0
   -1.1947    3.1773    0.0285 C   0  0  0  0  0  0  0  0  0  0  0  0
   -0.0712    3.8491    0.0220 N   0  0  0  0  0  0  0  0  0  0  0  0
    1.1161    3.2326    0.0083 C   0  0  0  0  0  0  0  0  0  0  0  0
    2.3097    3.9733    0.0005 C   0  0  0  0  0  0  0  0  0  0  0  0
    3.5109    3.3256   -0.0144 C   0  0  0  0  0  0  0  0  0  0  0  0
    4.6617    4.0481   -0.0214 O   0  0  0  0  0  0  0  0  0  0  0  0
    4.5342    5.4714   -0.0129 C   0  0  0  0  0  0  0  0  0  0  0  0
   -2.5021    1.0423    0.0193 C   0  0  0  0  0  0  0  0  0  0  0  0
   -3.7137    1.7393    0.0287 C   0  0  0  0  0  0  0  0  0  0  0  0
   -4.8903    1.0104    0.0297 C   0  0  0  0  0  0  0  0  0  0  0  0
   -4.8301   -0.3714    0.0215 C   0  0  0  0  0  0  0  0  0  0  0  0
   -3.6715   -1.0015    0.0123 N   0  0  0  0  0  0  0  0  0  0  0  0
   -2.5261   -0.3507    0.0060 C   0  0  0  0  0  0  0  0  0  0  0  0
    5.8092   -0.4888   -0.0575 H   0  0  0  0  0  0  0  0  0  0  0  0
    4.2766   -0.4913    0.8478 H   0  0  0  0  0  0  0  0  0  0  0  0
    4.2589   -0.4817   -0.9321 H   0  0  0  0  0  0  0  0  0  0  0  0
    2.4912    0.0975   -0.0213 H   0  0  0  0  0  0  0  0  0  0  0  0
    0.0021   -0.0041    0.0020 H   0  0  0  0  0  0  0  0  0  0  0  0
   -2.1309    3.7157    0.0392 H   0  0  0  0  0  0  0  0  0  0  0  0
    2.2769    5.0528    0.0064 H   0  0  0  0  0  0  0  0  0  0  0  0
    5.5252    5.9250   -0.0198 H   0  0  0  0  0  0  0  0  0  0  0  0
    3.9817    5.7920   -0.8962 H   0  0  0  0  0  0  0  0  0  0  0  0
    3.9982    5.7828    0.8837 H   0  0  0  0  0  0  0  0  0  0  0  0
   -3.7313    2.8192    0.0354 H   0  0  0  0  0  0  0  0  0  0  0  0
   -5.8451    1.5152    0.0365 H   0  0  0  0  0  0  0  0  0  0  0  0
   -5.7463   -0.9434    0.0222 H   0  0  0  0  0  0  0  0  0  0  0  0
   -1.5974   -0.9018   -0.0055 H   0  0  0  0  0  0  0  0  0  0  0  0
  1  2  1  0  0  0  0
  1 21  1  0  0  0  0
  1 22  1  0  0  0  0
  1 23  1  0  0  0  0
  2  3  1  0  0  0  0
  3 12  2  0  0  0  0
  3  4  1  0  0  0  0
  4  5  2  0  0  0  0
  4 24  1  0  0  0  0
  5 10  1  0  0  0  0
  5  6  1  0  0  0  0
  6  7  2  0  0  0  0
  6 25  1  0  0  0  0
  7  8  1  0  0  0  0
  7 15  1  0  0  0  0
  8  9  2  0  0  0  0
  8 26  1  0  0  0  0
  9 10  1  0  0  0  0
 10 11  2  0  0  0  0
 11 12  1  0  0  0  0
 11 27  1  0  0  0  0
 12 13  1  0  0  0  0
 13 14  1  0  0  0  0
 14 28  1  0  0  0  0
 14 29  1  0  0  0  0
 14 30  1  0  0  0  0
 15 20  2  0  0  0  0
 15 16  1  0  0  0  0
 16 17  2  0  0  0  0
 16 31  1  0  0  0  0
 17 18  1  0  0  0  0
 17 32  1  0  0  0  0
 18 19  2  0  0  0  0
 18 33  1  0  0  0  0
 19 20  1  0  0  0  0
 20 34  1  0  0  0  0
M  END
$$$$
ZINC03832248
  -OEChem-08230709403D

 42 44  0     0  0  0  0  0  0999 V2000
   -3.6312   -2.6411    0.0030 C   0  0  0  0  0  0  0  0  0  0  0  0
   -3.6631   -1.1344    0.0120 C   0  0  0  0  0  0  0  0  0  0  0  0
   -2.4831   -0.4203    0.0058 C   0  0  0  0  0  0  0  0  0  0  0  0
   -2.5135    0.9731    0.0194 C   0  0  0  0  0  0  0  0  0  0  0  0
   -3.7373    1.6408    0.0289 C   0  0  0  0  0  0  0  0  0  0  0  0
   -4.9136    0.9213    0.0301 C   0  0  0  0  0  0  0  0  0  0  0  0
   -4.8801   -0.4668    0.0214 C   0  0  0  0  0  0  0  0  0  0  0  0
   -6.0409   -1.1730    0.0218 O   0  0  0  0  0  0  0  0  0  0  0  0
   -7.2569   -0.4225    0.0313 C   0  0  0  0  0  0  0  0  0  0  0  0
   -1.2463    1.7441    0.0175 C   0  0  0  0  0  0  0  0  0  0  0  0
   -1.2723    3.1317    0.0315 C   0  0  0  0  0  0  0  0  0  0  0  0
   -0.0448    3.8147    0.0231 C   0  0  0  0  0  0  0  0  0  0  0  0
    0.0053    5.2196    0.0298 C   0  0  0  0  0  0  0  0  0  0  0  0
    1.2138    5.8519    0.0211 C   0  0  0  0  0  0  0  0  0  0  0  0
    2.4078    5.1143    0.0056 C   0  0  0  0  0  0  0  0  0  0  0  0
    2.3891    3.7500   -0.0012 C   0  0  0  0  0  0  0  0  0  0  0  0
    1.1607    3.0674    0.0074 C   0  0  0  0  0  0  0  0  0  0  0  0
    1.1213    1.7305    0.0006 N   0  0  0  0  0  0  0  0  0  0  0  0
   -0.0126    1.0758    0.0080 C   0  0  0  0  0  0  0  0  0  0  0  0
    3.5990    5.7680   -0.0032 O   0  0  0  0  0  0  0  0  0  0  0  0
    4.7802    4.9639   -0.0194 C   0  0  0  0  0  0  0  0  0  0  0  0
    1.2623    7.2104    0.0281 O   0  0  0  0  0  0  0  0  0  0  0  0
    0.0131    7.9041    0.0439 C   0  0  0  0  0  0  0  0  0  0  0  0
   -3.6282   -2.9983   -1.0268 H   0  0  0  0  0  0  0  0  0  0  0  0
   -2.7313   -2.9884    0.5107 H   0  0  0  0  0  0  0  0  0  0  0  0
   -4.5109   -3.0262    0.5187 H   0  0  0  0  0  0  0  0  0  0  0  0
   -1.5366   -0.9403   -0.0057 H   0  0  0  0  0  0  0  0  0  0  0  0
   -3.7641    2.7204    0.0350 H   0  0  0  0  0  0  0  0  0  0  0  0
   -5.8620    1.4380    0.0375 H   0  0  0  0  0  0  0  0  0  0  0  0
   -8.1058   -1.1062    0.0305 H   0  0  0  0  0  0  0  0  0  0  0  0
   -7.2926    0.2001    0.9253 H   0  0  0  0  0  0  0  0  0  0  0  0
   -7.2998    0.2110   -0.8546 H   0  0  0  0  0  0  0  0  0  0  0  0
   -2.2084    3.6703    0.0434 H   0  0  0  0  0  0  0  0  0  0  0  0
   -0.9084    5.7952    0.0420 H   0  0  0  0  0  0  0  0  0  0  0  0
    3.3161    3.1960   -0.0135 H   0  0  0  0  0  0  0  0  0  0  0  0
    0.0021   -0.0041    0.0020 H   0  0  0  0  0  0  0  0  0  0  0  0
    5.6588    5.6089   -0.0251 H   0  0  0  0  0  0  0  0  0  0  0  0
    4.8005    4.3301    0.8672 H   0  0  0  0  0  0  0  0  0  0  0  0
    4.7823    4.3392   -0.9127 H   0  0  0  0  0  0  0  0  0  0  0  0
    0.1944    8.9789    0.0480 H   0  0  0  0  0  0  0  0  0  0  0  0
   -0.5625    7.6362   -0.8420 H   0  0  0  0  0  0  0  0  0  0  0  0
   -0.5454    7.6264    0.9378 H   0  0  0  0  0  0  0  0  0  0  0  0
  1  2  1  0  0  0  0
  1 24  1  0  0  0  0
  1 25  1  0  0  0  0
  1 26  1  0  0  0  0
  2  7  2  0  0  0  0
  2  3  1  0  0  0  0
  3  4  2  0  0  0  0
  3 27  1  0  0  0  0
  4  5  1  0  0  0  0
  4 10  1  0  0  0  0
  5  6  2  0  0  0  0
  5 28  1  0  0  0  0
  6  7  1  0  0  0  0
  6 29  1  0  0  0  0
  7  8  1  0  0  0  0
  8  9  1  0  0  0  0
  9 30  1  0  0  0  0
  9 31  1  0  0  0  0
  9 32  1  0  0  0  0
 10 19  2  0  0  0  0
 10 11  1  0  0  0  0
 11 12  2  0  0  0  0
 11 33  1  0  0  0  0
 12 17  1  0  0  0  0
 12 13  1  0  0  0  0
 13 14  2  0  0  0  0
 13 34  1  0  0  0  0
 14 15  1  0  0  0  0
 14 22  1  0  0  0  0
 15 16  2  0  0  0  0
 15 20  1  0  0  0  0
 16 17  1  0  0  0  0
 16 35  1  0  0  0  0
 17 18  2  0  0  0  0
 18 19  1  0  0  0  0
 19 36  1  0  0  0  0
 20 21  1  0  0  0  0
 21 37  1  0  0  0  0
 21 38  1  0  0  0  0
 21 39  1  0  0  0  0
 22 23  1  0  0  0  0
 23 40  1  0  0  0  0
 23 41  1  0  0  0  0
 23 42  1  0  0  0  0
M  END
$$$$
ZINC03832249
  -OEChem-08230709403D

 37 39  0     1  0  0  0  0  0999 V2000
    0.0021   -0.0041    0.0020 C   0  0  0  0  0  0  0  0  0  0  0  0
   -0.0167    1.3786    0.0096 C   0  0  0  0  0  0  0  0  0  0  0  0
    1.1691    2.0868    0.0021 C   0  0  0  0  0  0  0  0  0  0  0  0
    2.3808    1.4090   -0.0135 C   0  0  0  0  0  0  0  0  0  0  0  0
    2.3963    0.0206   -0.0207 C   0  0  0  0  0  0  0  0  0  0  0  0
    1.2072   -0.6820   -0.0126 C   0  0  0  0  0  0  0  0  0  0  0  0
    3.5854    2.1246   -0.0221 N   0  0  0  0  0  0  0  0  0  0  0  0
    4.6488    1.9267    0.8061 C   0  0  0  0  0  0  0  0  0  0  0  0
    5.5998    2.7679    0.5210 N   0  0  0  0  0  0  0  0  0  0  0  0
    5.2137    3.5641   -0.5093 C   0  0  0  0  0  0  0  0  0  0  0  0
    3.9191    3.1605   -0.8776 C   0  0  0  0  0  0  0  0  0  0  0  0
    3.2575    3.8075   -1.9112 C   0  0  0  0  0  0  0  0  0  0  0  0
    3.8768    4.8387   -2.5844 C   0  0  0  0  0  0  0  0  0  0  0  0
    5.1611    5.2407   -2.2293 C   0  0  0  0  0  0  0  0  0  0  0  0
    5.8307    4.6109   -1.1989 C   0  0  0  0  0  0  0  0  0  0  0  0
    5.7602    6.2596   -2.9014 O   0  0  0  0  0  0  0  0  0  0  0  0
    5.0133    6.8686   -3.9565 C   0  0  0  0  0  0  0  0  0  0  0  0
    5.8442    7.9859   -4.5906 C   0  0  1  0  0  0  0  0  0  0  0  0
    6.8052    7.5855   -4.9134 H   0  0  0  0  0  0  0  0  0  0  0  0
    5.0969    8.5545   -5.7986 C   0  0  0  0  0  0  0  0  0  0  0  0
    5.9218    9.5161   -6.4595 O   0  0  0  0  0  0  0  0  0  0  0  0
    6.0584    9.0233   -3.6314 O   0  0  0  0  0  0  0  0  0  0  0  0
   -0.9264   -0.5556    0.0079 H   0  0  0  0  0  0  0  0  0  0  0  0
   -0.9595    1.9053    0.0169 H   0  0  0  0  0  0  0  0  0  0  0  0
    1.1538    3.1667    0.0077 H   0  0  0  0  0  0  0  0  0  0  0  0
    3.3373   -0.5094   -0.0328 H   0  0  0  0  0  0  0  0  0  0  0  0
    1.2187   -1.7619   -0.0182 H   0  0  0  0  0  0  0  0  0  0  0  0
    4.6957    1.1807    1.5857 H   0  0  0  0  0  0  0  0  0  0  0  0
    2.2606    3.5006   -2.1911 H   0  0  0  0  0  0  0  0  0  0  0  0
    3.3622    5.3379   -3.3921 H   0  0  0  0  0  0  0  0  0  0  0  0
    6.8275    4.9260   -0.9275 H   0  0  0  0  0  0  0  0  0  0  0  0
    4.7746    6.1199   -4.7118 H   0  0  0  0  0  0  0  0  0  0  0  0
    4.0901    7.2859   -3.5542 H   0  0  0  0  0  0  0  0  0  0  0  0
    4.8554    7.7468   -6.4895 H   0  0  0  0  0  0  0  0  0  0  0  0
    4.1769    9.0338   -5.4640 H   0  0  0  0  0  0  0  0  0  0  0  0
    5.5109    9.9188   -7.2368 H   0  0  0  0  0  0  0  0  0  0  0  0
    5.2444    9.4263   -3.2996 H   0  0  0  0  0  0  0  0  0  0  0  0
  1  6  2  0  0  0  0
  1  2  1  0  0  0  0
  1 23  1  0  0  0  0
  2  3  2  0  0  0  0
  2 24  1  0  0  0  0
  3  4  1  0  0  0  0
  3 25  1  0  0  0  0
  4  5  2  0  0  0  0
  4  7  1  0  0  0  0
  5  6  1  0  0  0  0
  5 26  1  0  0  0  0
  6 27  1  0  0  0  0
  7 11  1  0  0  0  0
  7  8  1  0  0  0  0
  8  9  2  0  0  0  0
  8 28  1  0  0  0  0
  9 10  1  0  0  0  0
 10 15  2  0  0  0  0
 10 11  1  0  0  0  0
 11 12  2  0  0  0  0
 12 13  1  0  0  0  0
 12 29  1  0  0  0  0
 13 14  2  0  0  0  0
 13 30  1  0  0  0  0
 14 15  1  0  0  0  0
 14 16  1  0  0  0  0
 15 31  1  0  0  0  0
 16 17  1  0  0  0  0
 17 18  1  0  0  0  0
 17 32  1  0  0  0  0
 17 33  1  0  0  0  0
 18 19  1  0  0  0  0
 18 20  1  0  0  0  0
 18 22  1  0  0  0  0
 20 21  1  0  0  0  0
 20 34  1  0  0  0  0
 20 35  1  0  0  0  0
 21 36  1  0  0  0  0
 22 37  1  0  0  0  0
M  END
$$$$
ZINC03832250
  -OEChem-08230709403D

 40 43  0     0  0  0  0  0  0999 V2000
    2.2818    6.3663   -2.2119 C   0  0  0  0  0  0  0  0  0  0  0  0
    1.9344    5.6582   -0.9773 N   0  0  0  0  0  0  0  0  0  0  0  0
    1.4547    6.3630    0.0977 C   0  0  0  0  0  0  0  0  0  0  0  0
    1.1153    5.6960    1.2948 C   0  0  0  0  0  0  0  0  0  0  0  0
    1.2670    4.2942    1.3956 C   0  0  0  0  0  0  0  0  0  0  0  0
    1.7464    3.5993    0.3176 C   0  0  0  0  0  0  0  0  0  0  0  0
    2.0948    4.3227   -0.9071 C   0  0  0  0  0  0  0  0  0  0  0  0
    2.5270    3.7129   -1.8689 O   0  0  0  0  0  0  0  0  0  0  0  0
    1.9168    2.1293    0.3917 C   0  0  0  0  0  0  0  0  0  0  0  0
    0.8040    1.3022    0.5405 C   0  0  0  0  0  0  0  0  0  0  0  0
    0.9690   -0.0661    0.6083 C   0  0  0  0  0  0  0  0  0  0  0  0
    2.2353   -0.6177    0.5291 C   0  0  0  0  0  0  0  0  0  0  0  0
    3.3431    0.1978    0.3814 C   0  0  0  0  0  0  0  0  0  0  0  0
    3.1907    1.5675    0.3123 C   0  0  0  0  0  0  0  0  0  0  0  0
    0.6288    6.4539    2.3705 C   0  0  0  0  0  0  0  0  0  0  0  0
    0.5082    7.7596    2.2198 N   0  0  0  0  0  0  0  0  0  0  0  0
    0.8376    8.3535    1.0781 C   0  0  0  0  0  0  0  0  0  0  0  0
    1.3006    7.6808    0.0359 N   0  0  0  0  0  0  0  0  0  0  0  0
    0.6919    9.7242    0.9745 N   0  0  0  0  0  0  0  0  0  0  0  0
    0.1005   10.4425    2.0121 C   0  0  0  0  0  0  0  0  0  0  0  0
   -0.9168    9.8801    2.7824 C   0  0  0  0  0  0  0  0  0  0  0  0
   -1.4728   10.6225    3.8031 C   0  0  0  0  0  0  0  0  0  0  0  0
   -1.0606   11.8523    4.0474 N   0  0  0  0  0  0  0  0  0  0  0  0
   -0.1043   12.4214    3.3379 C   0  0  0  0  0  0  0  0  0  0  0  0
    0.5066   11.7443    2.3032 C   0  0  0  0  0  0  0  0  0  0  0  0
    3.3278    6.6705   -2.1742 H   0  0  0  0  0  0  0  0  0  0  0  0
    2.1259    5.7064   -3.0654 H   0  0  0  0  0  0  0  0  0  0  0  0
    1.6502    7.2487   -2.3147 H   0  0  0  0  0  0  0  0  0  0  0  0
    1.0085    3.7791    2.3089 H   0  0  0  0  0  0  0  0  0  0  0  0
   -0.1854    1.7314    0.5980 H   0  0  0  0  0  0  0  0  0  0  0  0
    0.1080   -0.7077    0.7232 H   0  0  0  0  0  0  0  0  0  0  0  0
    2.3595   -1.6891    0.5830 H   0  0  0  0  0  0  0  0  0  0  0  0
    4.3291   -0.2385    0.3204 H   0  0  0  0  0  0  0  0  0  0  0  0
    4.0562    2.2030    0.1967 H   0  0  0  0  0  0  0  0  0  0  0  0
    0.3591    5.9791    3.3022 H   0  0  0  0  0  0  0  0  0  0  0  0
    1.0013   10.1861    0.1796 H   0  0  0  0  0  0  0  0  0  0  0  0
   -1.2619    8.8760    2.5848 H   0  0  0  0  0  0  0  0  0  0  0  0
   -2.2587   10.1937    4.4073 H   0  0  0  0  0  0  0  0  0  0  0  0
    0.2036   13.4301    3.5702 H   0  0  0  0  0  0  0  0  0  0  0  0
    1.2884   12.2160    1.7262 H   0  0  0  0  0  0  0  0  0  0  0  0
  1  2  1  0  0  0  0
  1 26  1  0  0  0  0
  1 27  1  0  0  0  0
  1 28  1  0  0  0  0
  2  7  1  0  0  0  0
  2  3  1  0  0  0  0
  3 18  2  0  0  0  0
  3  4  1  0  0  0  0
  4  5  1  0  0  0  0
  4 15  2  0  0  0  0
  5  6  2  0  0  0  0
  5 29  1  0  0  0  0
  6  7  1  0  0  0  0
  6  9  1  0  0  0  0
  7  8  2  0  0  0  0
  9 14  2  0  0  0  0
  9 10  1  0  0  0  0
 10 11  2  0  0  0  0
 10 30  1  0  0  0  0
 11 12  1  0  0  0  0
 11 31  1  0  0  0  0
 12 13  2  0  0  0  0
 12 32  1  0  0  0  0
 13 14  1  0  0  0  0
 13 33  1  0  0  0  0
 14 34  1  0  0  0  0
 15 16  1  0  0  0  0
 15 35  1  0  0  0  0
 16 17  2  0  0  0  0
 17 18  1  0  0  0  0
 17 19  1  0  0  0  0
 19 20  1  0  0  0  0
 19 36  1  0  0  0  0
 20 25  2  0  0  0  0
 20 21  1  0  0  0  0
 21 22  2  0  0  0  0
 21 37  1  0  0  0  0
 22 23  1  0  0  0  0
 22 38  1  0  0  0  0
 23 24  2  0  0  0  0
 24 25  1  0  0  0  0
 24 39  1  0  0  0  0
 25 40  1  0  0  0  0
M  END
$$$$
ZINC03832251
  -OEChem-08230709403D

 34 37  0     1  0  0  0  0  0999 V2000
    2.4910   -7.2782   -0.0624 C   0  0  0  0  0  0  0  0  0  0  0  0
    1.4660   -7.2662    0.8657 C   0  0  0  0  0  0  0  0  0  0  0  0
    0.5603   -6.2236    0.8829 C   0  0  0  0  0  0  0  0  0  0  0  0
    0.6798   -5.1869   -0.0329 C   0  0  0  0  0  0  0  0  0  0  0  0
    1.7070   -5.2044   -0.9669 C   0  0  0  0  0  0  0  0  0  0  0  0
    2.6130   -6.2469   -0.9754 C   0  0  0  0  0  0  0  0  0  0  0  0
   -0.2377   -4.1280   -0.0183 N   0  0  0  0  0  0  0  0  0  0  0  0
   -1.5958   -4.2356   -0.0061 C   0  0  0  0  0  0  0  0  0  0  0  0
   -2.1376   -3.0526    0.0056 N   0  0  0  0  0  0  0  0  0  0  0  0
   -1.1661   -2.1034    0.0019 C   0  0  0  0  0  0  0  0  0  0  0  0
    0.0667   -2.7776   -0.0135 C   0  0  0  0  0  0  0  0  0  0  0  0
    1.2523   -2.0572   -0.0209 C   0  0  0  0  0  0  0  0  0  0  0  0
    1.2191   -0.6792   -0.0132 C   0  0  0  0  0  0  0  0  0  0  0  0
    0.0021   -0.0041    0.0020 C   0  0  0  0  0  0  0  0  0  0  0  0
   -1.1867   -0.7065    0.0153 C   0  0  0  0  0  0  0  0  0  0  0  0
   -0.0164    1.3555    0.0095 O   0  0  0  0  0  0  0  0  0  0  0  0
    1.2479    2.0215    0.0010 C   0  0  0  0  0  0  0  0  0  0  0  0
    1.0269    3.5354    0.0112 C   0  0  2  0  0  0  0  0  0  0  0  0
    0.0967    3.8807   -0.4399 H   0  0  0  0  0  0  0  0  0  0  0  0
    2.2572    4.4364   -0.1137 C   0  0  0  0  0  0  0  0  0  0  0  0
    1.5475    4.2769    1.1164 O   0  0  0  0  0  0  0  0  0  0  0  0
    3.1980   -8.0945   -0.0739 H   0  0  0  0  0  0  0  0  0  0  0  0
    1.3733   -8.0731    1.5776 H   0  0  0  0  0  0  0  0  0  0  0  0
   -0.2399   -6.2146    1.6082 H   0  0  0  0  0  0  0  0  0  0  0  0
    1.8001   -4.4015   -1.6832 H   0  0  0  0  0  0  0  0  0  0  0  0
    3.4150   -6.2587   -1.6986 H   0  0  0  0  0  0  0  0  0  0  0  0
   -2.1428   -5.1668   -0.0068 H   0  0  0  0  0  0  0  0  0  0  0  0
    2.1998   -2.5752   -0.0324 H   0  0  0  0  0  0  0  0  0  0  0  0
    2.1430   -0.1200   -0.0187 H   0  0  0  0  0  0  0  0  0  0  0  0
   -2.1285   -0.1782    0.0319 H   0  0  0  0  0  0  0  0  0  0  0  0
    1.8173    1.7315    0.8840 H   0  0  0  0  0  0  0  0  0  0  0  0
    1.8003    1.7410   -0.8958 H   0  0  0  0  0  0  0  0  0  0  0  0
    3.2315    3.9560   -0.2039 H   0  0  0  0  0  0  0  0  0  0  0  0
    2.1435    5.3802   -0.6469 H   0  0  0  0  0  0  0  0  0  0  0  0
  1  6  2  0  0  0  0
  1  2  1  0  0  0  0
  1 22  1  0  0  0  0
  2  3  2  0  0  0  0
  2 23  1  0  0  0  0
  3  4  1  0  0  0  0
  3 24  1  0  0  0  0
  4  5  2  0  0  0  0
  4  7  1  0  0  0  0
  5  6  1  0  0  0  0
  5 25  1  0  0  0  0
  6 26  1  0  0  0  0
  7 11  1  0  0  0  0
  7  8  1  0  0  0  0
  8  9  2  0  0  0  0
  8 27  1  0  0  0  0
  9 10  1  0  0  0  0
 10 15  2  0  0  0  0
 10 11  1  0  0  0  0
 11 12  2  0  0  0  0
 12 13  1  0  0  0  0
 12 28  1  0  0  0  0
 13 14  2  0  0  0  0
 13 29  1  0  0  0  0
 14 15  1  0  0  0  0
 14 16  1  0  0  0  0
 15 30  1  0  0  0  0
 16 17  1  0  0  0  0
 17 18  1  0  0  0  0
 17 31  1  0  0  0  0
 17 32  1  0  0  0  0
 18 19  1  0  0  0  0
 18 21  1  0  0  0  0
 18 20  1  0  0  0  0
 20 21  1  0  0  0  0
 20 33  1  0  0  0  0
 20 34  1  0  0  0  0
M  END
$$$$
ZINC03832252
  -OEChem-08230709403D

 33 35  0     0  0  0  0  0  0999 V2000
   -0.0127    1.0858    0.0080 C   0  0  0  0  0  0  0  0  0  0  0  0
   -0.6816    1.5467    1.1837 O   0  0  0  0  0  0  0  0  0  0  0  0
   -0.1485    1.1819    2.3802 C   0  0  0  0  0  0  0  0  0  0  0  0
    0.9893    0.4004    2.4148 C   0  0  0  0  0  0  0  0  0  0  0  0
    1.5358    0.0264    3.6451 C   0  0  0  0  0  0  0  0  0  0  0  0
    0.9195    0.4512    4.8343 C   0  0  0  0  0  0  0  0  0  0  0  0
   -0.2234    1.2359    4.7824 C   0  0  0  0  0  0  0  0  0  0  0  0
   -0.7499    1.6034    3.5625 C   0  0  0  0  0  0  0  0  0  0  0  0
   -1.9875    2.4615    3.5088 C   0  0  0  0  0  0  0  0  0  0  0  0
   -2.4158    2.7635    4.8382 O   0  0  0  0  0  0  0  0  0  0  0  0
    1.6810   -0.0712    5.8656 N   0  0  0  0  0  0  0  0  0  0  0  0
    2.7014   -0.7731    5.2982 C   0  0  0  0  0  0  0  0  0  0  0  0
    2.6161   -0.7157    4.0010 N   0  0  0  0  0  0  0  0  0  0  0  0
    1.4457    0.0911    7.2373 C   0  0  0  0  0  0  0  0  0  0  0  0
    1.2326    1.3591    7.7613 C   0  0  0  0  0  0  0  0  0  0  0  0
    0.9957    1.5152    9.1130 C   0  0  0  0  0  0  0  0  0  0  0  0
    0.9819    0.4115    9.9460 C   0  0  0  0  0  0  0  0  0  0  0  0
    1.1990   -0.8520    9.4279 C   0  0  0  0  0  0  0  0  0  0  0  0
    1.4308   -1.0153    8.0762 C   0  0  0  0  0  0  0  0  0  0  0  0
    0.0021   -0.0041    0.0020 H   0  0  0  0  0  0  0  0  0  0  0  0
    1.0099    1.4631    0.0003 H   0  0  0  0  0  0  0  0  0  0  0  0
   -0.5399    1.4469   -0.8751 H   0  0  0  0  0  0  0  0  0  0  0  0
    1.4551    0.0797    1.4947 H   0  0  0  0  0  0  0  0  0  0  0  0
   -0.6972    1.5624    5.6963 H   0  0  0  0  0  0  0  0  0  0  0  0
   -1.7645    3.3880    2.9797 H   0  0  0  0  0  0  0  0  0  0  0  0
   -2.7789    1.9254    2.9851 H   0  0  0  0  0  0  0  0  0  0  0  0
   -3.2096    3.3142    4.8802 H   0  0  0  0  0  0  0  0  0  0  0  0
    3.4693   -1.3000    5.8451 H   0  0  0  0  0  0  0  0  0  0  0  0
    1.2476    2.2219    7.1119 H   0  0  0  0  0  0  0  0  0  0  0  0
    0.8258    2.5008    9.5206 H   0  0  0  0  0  0  0  0  0  0  0  0
    0.8009    0.5366   11.0034 H   0  0  0  0  0  0  0  0  0  0  0  0
    1.1870   -1.7122   10.0809 H   0  0  0  0  0  0  0  0  0  0  0  0
    1.6000   -2.0024    7.6720 H   0  0  0  0  0  0  0  0  0  0  0  0
  1  2  1  0  0  0  0
  1 20  1  0  0  0  0
  1 21  1  0  0  0  0
  1 22  1  0  0  0  0
  2  3  1  0  0  0  0
  3  8  2  0  0  0  0
  3  4  1  0  0  0  0
  4  5  2  0  0  0  0
  4 23  1  0  0  0  0
  5 13  1  0  0  0  0
  5  6  1  0  0  0  0
  6  7  2  0  0  0  0
  6 11  1  0  0  0  0
  7  8  1  0  0  0  0
  7 24  1  0  0  0  0
  8  9  1  0  0  0  0
  9 10  1  0  0  0  0
  9 25  1  0  0  0  0
  9 26  1  0  0  0  0
 10 27  1  0  0  0  0
 11 12  1  0  0  0  0
 11 14  1  0  0  0  0
 12 13  2  0  0  0  0
 12 28  1  0  0  0  0
 14 19  2  0  0  0  0
 14 15  1  0  0  0  0
 15 16  2  0  0  0  0
 15 29  1  0  0  0  0
 16 17  1  0  0  0  0
 16 30  1  0  0  0  0
 17 18  2  0  0  0  0
 17 31  1  0  0  0  0
 18 19  1  0  0  0  0
 18 32  1  0  0  0  0
 19 33  1  0  0  0  0
M  END
$$$$
ZINC03832253
  -OEChem-08230709403D

 30 32  0     0  0  0  0  0  0999 V2000
    3.4867   -2.0848   -0.0440 C   0  0  0  0  0  0  0  0  0  0  0  0
    3.5738   -0.6584   -0.0367 O   0  0  0  0  0  0  0  0  0  0  0  0
    2.4029    0.0311   -0.0210 C   0  0  0  0  0  0  0  0  0  0  0  0
    1.1903   -0.6654   -0.0128 C   0  0  0  0  0  0  0  0  0  0  0  0
    0.0021   -0.0041    0.0020 C   0  0  0  0  0  0  0  0  0  0  0  0
   -0.0170    1.4021    0.0098 C   0  0  0  0  0  0  0  0  0  0  0  0
    1.2125    2.1084    0.0018 C   0  0  0  0  0  0  0  0  0  0  0  0
    2.4233    1.3969   -0.0139 C   0  0  0  0  0  0  0  0  0  0  0  0
    1.1941    3.5141    0.0094 C   0  0  0  0  0  0  0  0  0  0  0  0
   -0.0393    4.1489    0.0245 C   0  0  0  0  0  0  0  0  0  0  0  0
   -1.2132    3.3792    0.0317 C   0  0  0  0  0  0  0  0  0  0  0  0
   -1.1750    2.0710    0.0189 N   0  0  0  0  0  0  0  0  0  0  0  0
   -0.1171    5.6301    0.0326 C   0  0  0  0  0  0  0  0  0  0  0  0
    1.0430    6.4101    0.0310 C   0  0  0  0  0  0  0  0  0  0  0  0
    0.9252    7.7848    0.0334 C   0  0  0  0  0  0  0  0  0  0  0  0
   -0.2606    8.3628    0.0478 N   0  0  0  0  0  0  0  0  0  0  0  0
   -1.3793    7.6636    0.0549 C   0  0  0  0  0  0  0  0  0  0  0  0
   -1.3524    6.2842    0.0478 C   0  0  0  0  0  0  0  0  0  0  0  0
    2.9428   -2.4111   -0.9304 H   0  0  0  0  0  0  0  0  0  0  0  0
    4.4903   -2.5100   -0.0565 H   0  0  0  0  0  0  0  0  0  0  0  0
    2.9607   -2.4212    0.8495 H   0  0  0  0  0  0  0  0  0  0  0  0
    1.1976   -1.7453   -0.0187 H   0  0  0  0  0  0  0  0  0  0  0  0
   -0.9252   -0.5577    0.0075 H   0  0  0  0  0  0  0  0  0  0  0  0
    3.3646    1.9262   -0.0200 H   0  0  0  0  0  0  0  0  0  0  0  0
    2.1124    4.0825    0.0040 H   0  0  0  0  0  0  0  0  0  0  0  0
   -2.1708    3.8784    0.0432 H   0  0  0  0  0  0  0  0  0  0  0  0
    2.0170    5.9436    0.0238 H   0  0  0  0  0  0  0  0  0  0  0  0
    1.8158    8.3958    0.0281 H   0  0  0  0  0  0  0  0  0  0  0  0
   -2.3290    8.1779    0.0666 H   0  0  0  0  0  0  0  0  0  0  0  0
   -2.2722    5.7181    0.0537 H   0  0  0  0  0  0  0  0  0  0  0  0
  1  2  1  0  0  0  0
  1 19  1  0  0  0  0
  1 20  1  0  0  0  0
  1 21  1  0  0  0  0
  2  3  1  0  0  0  0
  3  8  2  0  0  0  0
  3  4  1  0  0  0  0
  4  5  2  0  0  0  0
  4 22  1  0  0  0  0
  5  6  1  0  0  0  0
  5 23  1  0  0  0  0
  6 12  2  0  0  0  0
  6  7  1  0  0  0  0
  7  8  1  0  0  0  0
  7  9  2  0  0  0  0
  8 24  1  0  0  0  0
  9 10  1  0  0  0  0
  9 25  1  0  0  0  0
 10 11  2  0  0  0  0
 10 13  1  0  0  0  0
 11 12  1  0  0  0  0
 11 26  1  0  0  0  0
 13 18  2  0  0  0  0
 13 14  1  0  0  0  0
 14 15  2  0  0  0  0
 14 27  1  0  0  0  0
 15 16  1  0  0  0  0
 15 28  1  0  0  0  0
 16 17  2  0  0  0  0
 17 18  1  0  0  0  0
 17 29  1  0  0  0  0
 18 30  1  0  0  0  0
M  END
$$$$
ZINC03832254
  -OEChem-08230709403D

 38 40  0     0  0  0  0  0  0999 V2000
    1.0981   -4.8522    0.1982 C   0  0  0  0  0  0  0  0  0  0  0  0
    2.3628   -4.1969    0.0828 O   0  0  0  0  0  0  0  0  0  0  0  0
    2.3515   -2.8393    0.0300 C   0  0  0  0  0  0  0  0  0  0  0  0
    1.1516   -2.1669    0.0884 C   0  0  0  0  0  0  0  0  0  0  0  0
    1.1302   -0.7648    0.0341 C   0  0  0  0  0  0  0  0  0  0  0  0
    2.3539   -0.0561   -0.0811 C   0  0  0  0  0  0  0  0  0  0  0  0
    2.3289    1.3462   -0.1352 C   0  0  0  0  0  0  0  0  0  0  0  0
    1.0951    1.9799   -0.0738 C   0  0  0  0  0  0  0  0  0  0  0  0
   -0.0727    1.2101    0.0400 C   0  0  0  0  0  0  0  0  0  0  0  0
   -0.0290   -0.0973    0.0894 N   0  0  0  0  0  0  0  0  0  0  0  0
    1.0119    3.4594   -0.1284 C   0  0  0  0  0  0  0  0  0  0  0  0
    2.1667    4.2402   -0.2358 C   0  0  0  0  0  0  0  0  0  0  0  0
    2.0437    5.6132   -0.2882 C   0  0  0  0  0  0  0  0  0  0  0  0
    0.8584    6.1897   -0.2283 N   0  0  0  0  0  0  0  0  0  0  0  0
   -0.2551    5.4901   -0.1217 C   0  0  0  0  0  0  0  0  0  0  0  0
   -0.2231    4.1120   -0.0681 C   0  0  0  0  0  0  0  0  0  0  0  0
    3.5710   -0.7644   -0.1387 C   0  0  0  0  0  0  0  0  0  0  0  0
    3.5604   -2.1421   -0.0836 C   0  0  0  0  0  0  0  0  0  0  0  0
    4.7338   -2.8293   -0.1394 O   0  0  0  0  0  0  0  0  0  0  0  0
    5.1988   -3.2148   -1.4345 C   0  0  0  0  0  0  0  0  0  0  0  0
    4.7477   -0.0937   -0.2489 O   0  0  0  0  0  0  0  0  0  0  0  0
    5.4361    0.2125    0.9653 C   0  0  0  0  0  0  0  0  0  0  0  0
    0.4773   -4.5976   -0.6609 H   0  0  0  0  0  0  0  0  0  0  0  0
    1.2495   -5.9312    0.2300 H   0  0  0  0  0  0  0  0  0  0  0  0
    0.6029   -4.5276    1.1133 H   0  0  0  0  0  0  0  0  0  0  0  0
    0.2272   -2.7183    0.1763 H   0  0  0  0  0  0  0  0  0  0  0  0
    3.2425    1.9155   -0.2225 H   0  0  0  0  0  0  0  0  0  0  0  0
   -1.0302    1.7077    0.0832 H   0  0  0  0  0  0  0  0  0  0  0  0
    3.1404    3.7751   -0.2810 H   0  0  0  0  0  0  0  0  0  0  0  0
    2.9297    6.2246   -0.3756 H   0  0  0  0  0  0  0  0  0  0  0  0
   -1.2043    6.0032   -0.0754 H   0  0  0  0  0  0  0  0  0  0  0  0
   -1.1386    3.5456    0.0188 H   0  0  0  0  0  0  0  0  0  0  0  0
    6.1756   -3.6897   -1.3433 H   0  0  0  0  0  0  0  0  0  0  0  0
    4.4937   -3.9167   -1.8797 H   0  0  0  0  0  0  0  0  0  0  0  0
    5.2818   -2.3319   -2.0684 H   0  0  0  0  0  0  0  0  0  0  0  0
    6.3157    0.8164    0.7420 H   0  0  0  0  0  0  0  0  0  0  0  0
    4.7731    0.7678    1.6287 H   0  0  0  0  0  0  0  0  0  0  0  0
    5.7447   -0.7130    1.4514 H   0  0  0  0  0  0  0  0  0  0  0  0
  1  2  1  0  0  0  0
  1 23  1  0  0  0  0
  1 24  1  0  0  0  0
  1 25  1  0  0  0  0
  2  3  1  0  0  0  0
  3 18  2  0  0  0  0
  3  4  1  0  0  0  0
  4  5  2  0  0  0  0
  4 26  1  0  0  0  0
  5 10  1  0  0  0  0
  5  6  1  0  0  0  0
  6  7  1  0  0  0  0
  6 17  2  0  0  0  0
  7  8  2  0  0  0  0
  7 27  1  0  0  0  0
  8  9  1  0  0  0  0
  8 11  1  0  0  0  0
  9 10  2  0  0  0  0
  9 28  1  0  0  0  0
 11 16  2  0  0  0  0
 11 12  1  0  0  0  0
 12 13  2  0  0  0  0
 12 29  1  0  0  0  0
 13 14  1  0  0  0  0
 13 30  1  0  0  0  0
 14 15  2  0  0  0  0
 15 16  1  0  0  0  0
 15 31  1  0  0  0  0
 16 32  1  0  0  0  0
 17 18  1  0  0  0  0
 17 21  1  0  0  0  0
 18 19  1  0  0  0  0
 19 20  1  0  0  0  0
 20 33  1  0  0  0  0
 20 34  1  0  0  0  0
 20 35  1  0  0  0  0
 21 22  1  0  0  0  0
 22 36  1  0  0  0  0
 22 37  1  0  0  0  0
 22 38  1  0  0  0  0
M  END
$$$$
ZINC03832255
  -OEChem-08230709403D

 27 30  0     0  0  0  0  0  0999 V2000
    7.1020   -3.2534    3.9555 C   0  0  0  0  0  0  0  0  0  0  0  0
    8.3330   -3.3715    4.5023 C   0  0  0  0  0  0  0  0  0  0  0  0
    9.0088   -1.7361    4.2697 S   0  0  0  0  0  0  0  0  0  0  0  0
    7.6077   -0.9931    3.4506 C   0  0  0  0  0  0  0  0  0  0  0  0
    6.7184   -2.0305    3.4133 C   0  0  0  0  0  0  0  0  0  0  0  0
    5.3770   -1.8584    2.8033 C   0  0  0  0  0  0  0  0  0  0  0  0
    5.0055   -0.6341    2.2657 C   0  0  0  0  0  0  0  0  0  0  0  0
    3.7245   -0.5235    1.6996 C   0  0  0  0  0  0  0  0  0  0  0  0
    3.2805    0.6847    1.1358 C   0  0  0  0  0  0  0  0  0  0  0  0
    2.0300    0.7617    0.5957 C   0  0  0  0  0  0  0  0  0  0  0  0
    1.1794   -0.3577    0.5974 C   0  0  0  0  0  0  0  0  0  0  0  0
    1.5872   -1.5434    1.1371 C   0  0  0  0  0  0  0  0  0  0  0  0
    2.8692   -1.6549    1.7009 C   0  0  0  0  0  0  0  0  0  0  0  0
    3.2845   -2.8090    2.2340 N   0  0  0  0  0  0  0  0  0  0  0  0
    4.4749   -2.9324    2.7651 C   0  0  0  0  0  0  0  0  0  0  0  0
    0.0021   -0.0041    0.0020 O   0  0  0  0  0  0  0  0  0  0  0  0
   -0.0174    1.4350    0.0099 C   0  0  0  0  0  0  0  0  0  0  0  0
    1.3746    1.8007   -0.0014 O   0  0  0  0  0  0  0  0  0  0  0  0
    6.4266   -4.0960    3.9393 H   0  0  0  0  0  0  0  0  0  0  0  0
    8.7906   -4.2350    4.9621 H   0  0  0  0  0  0  0  0  0  0  0  0
    7.4922    0.0152    3.0811 H   0  0  0  0  0  0  0  0  0  0  0  0
    5.6811    0.2084    2.2818 H   0  0  0  0  0  0  0  0  0  0  0  0
    3.9273    1.5496    1.1297 H   0  0  0  0  0  0  0  0  0  0  0  0
    0.9243   -2.3961    1.1303 H   0  0  0  0  0  0  0  0  0  0  0  0
    4.7692   -3.8832    3.1844 H   0  0  0  0  0  0  0  0  0  0  0  0
   -0.5199    1.8155   -0.8794 H   0  0  0  0  0  0  0  0  0  0  0  0
   -0.5028    1.8059    0.9127 H   0  0  0  0  0  0  0  0  0  0  0  0
  1  5  1  0  0  0  0
  1  2  2  0  0  0  0
  1 19  1  0  0  0  0
  2  3  1  0  0  0  0
  2 20  1  0  0  0  0
  3  4  1  0  0  0  0
  4  5  2  0  0  0  0
  4 21  1  0  0  0  0
  5  6  1  0  0  0  0
  6 15  2  0  0  0  0
  6  7  1  0  0  0  0
  7  8  2  0  0  0  0
  7 22  1  0  0  0  0
  8 13  1  0  0  0  0
  8  9  1  0  0  0  0
  9 10  2  0  0  0  0
  9 23  1  0  0  0  0
 10 18  1  0  0  0  0
 10 11  1  0  0  0  0
 11 12  2  0  0  0  0
 11 16  1  0  0  0  0
 12 13  1  0  0  0  0
 12 24  1  0  0  0  0
 13 14  2  0  0  0  0
 14 15  1  0  0  0  0
 15 25  1  0  0  0  0
 16 17  1  0  0  0  0
 17 18  1  0  0  0  0
 17 26  1  0  0  0  0
 17 27  1  0  0  0  0
M  END
$$$$
ZINC03832256
  -OEChem-08230709403D

 45 47  0     0  0  0  0  0  0999 V2000
    4.7725    0.1638   -0.0424 C   0  0  0  0  0  0  0  0  0  0  0  0
    3.5855   -0.6319   -0.0353 O   0  0  0  0  0  0  0  0  0  0  0  0
    2.3989    0.0304   -0.0208 C   0  0  0  0  0  0  0  0  0  0  0  0
    1.2070   -0.6796   -0.0132 C   0  0  0  0  0  0  0  0  0  0  0  0
    0.0021   -0.0041    0.0020 C   0  0  0  0  0  0  0  0  0  0  0  0
   -0.0167    1.3784    0.0096 C   0  0  0  0  0  0  0  0  0  0  0  0
    1.1698    2.0883    0.0021 C   0  0  0  0  0  0  0  0  0  0  0  0
    2.3774    1.4175   -0.0131 C   0  0  0  0  0  0  0  0  0  0  0  0
   -1.3326    2.1128    0.0199 C   0  0  0  0  0  0  0  0  0  0  0  0
   -1.7711    2.3535    1.4658 C   0  0  0  0  0  0  0  0  0  0  0  0
   -3.0870    3.0879    1.4760 C   0  0  0  0  0  0  0  0  0  0  0  0
   -4.2609    2.3880    1.4778 C   0  0  0  0  0  0  0  0  0  0  0  0
   -5.4663    3.1127    1.4879 C   0  0  0  0  0  0  0  0  0  0  0  0
   -6.7101    2.4593    1.4908 C   0  0  0  0  0  0  0  0  0  0  0  0
   -7.8587    3.1948    1.5012 C   0  0  0  0  0  0  0  0  0  0  0  0
   -7.8114    4.5976    1.5084 C   0  0  0  0  0  0  0  0  0  0  0  0
   -6.6179    5.2584    1.5058 C   0  0  0  0  0  0  0  0  0  0  0  0
   -5.4162    4.5296    1.4958 C   0  0  0  0  0  0  0  0  0  0  0  0
   -4.2336    5.1529    1.4941 N   0  0  0  0  0  0  0  0  0  0  0  0
   -3.1079    4.4798    1.4895 C   0  0  0  0  0  0  0  0  0  0  0  0
   -8.9702    5.3071    1.5177 O   0  0  0  0  0  0  0  0  0  0  0  0
   -8.8586    6.7318    1.5247 C   0  0  0  0  0  0  0  0  0  0  0  0
   -9.0621    2.5625    1.5040 O   0  0  0  0  0  0  0  0  0  0  0  0
   -9.0443    1.1337    1.4958 C   0  0  0  0  0  0  0  0  0  0  0  0
    5.6464   -0.4875   -0.0539 H   0  0  0  0  0  0  0  0  0  0  0  0
    4.7798    0.7974   -0.9293 H   0  0  0  0  0  0  0  0  0  0  0  0
    4.7965    0.7884    0.8506 H   0  0  0  0  0  0  0  0  0  0  0  0
    1.2211   -1.7595   -0.0195 H   0  0  0  0  0  0  0  0  0  0  0  0
   -0.9260   -0.5563    0.0083 H   0  0  0  0  0  0  0  0  0  0  0  0
    1.1525    3.1682    0.0077 H   0  0  0  0  0  0  0  0  0  0  0  0
    3.3039    1.9724   -0.0187 H   0  0  0  0  0  0  0  0  0  0  0  0
   -1.2185    3.0698   -0.4893 H   0  0  0  0  0  0  0  0  0  0  0  0
   -2.0860    1.5155   -0.4937 H   0  0  0  0  0  0  0  0  0  0  0  0
   -1.8851    1.3965    1.9750 H   0  0  0  0  0  0  0  0  0  0  0  0
   -1.0176    2.9508    1.9793 H   0  0  0  0  0  0  0  0  0  0  0  0
   -4.2629    1.3080    1.4719 H   0  0  0  0  0  0  0  0  0  0  0  0
   -6.7564    1.3803    1.4853 H   0  0  0  0  0  0  0  0  0  0  0  0
   -6.5965    6.3382    1.5119 H   0  0  0  0  0  0  0  0  0  0  0  0
   -2.1725    5.0196    1.4921 H   0  0  0  0  0  0  0  0  0  0  0  0
   -8.3137    7.0491    2.4139 H   0  0  0  0  0  0  0  0  0  0  0  0
   -8.3221    7.0586    0.6339 H   0  0  0  0  0  0  0  0  0  0  0  0
   -9.8547    7.1742    1.5318 H   0  0  0  0  0  0  0  0  0  0  0  0
   -8.5307    0.7819    0.6010 H   0  0  0  0  0  0  0  0  0  0  0  0
   -8.5212    0.7718    2.3809 H   0  0  0  0  0  0  0  0  0  0  0  0
  -10.0673    0.7575    1.4991 H   0  0  0  0  0  0  0  0  0  0  0  0
  1  2  1  0  0  0  0
  1 25  1  0  0  0  0
  1 26  1  0  0  0  0
  1 27  1  0  0  0  0
  2  3  1  0  0  0  0
  3  8  2  0  0  0  0
  3  4  1  0  0  0  0
  4  5  2  0  0  0  0
  4 28  1  0  0  0  0
  5  6  1  0  0  0  0
  5 29  1  0  0  0  0
  6  7  2  0  0  0  0
  6  9  1  0  0  0  0
  7  8  1  0  0  0  0
  7 30  1  0  0  0  0
  8 31  1  0  0  0  0
  9 10  1  0  0  0  0
  9 32  1  0  0  0  0
  9 33  1  0  0  0  0
 10 11  1  0  0  0  0
 10 34  1  0  0  0  0
 10 35  1  0  0  0  0
 11 20  2  0  0  0  0
 11 12  1  0  0  0  0
 12 13  2  0  0  0  0
 12 36  1  0  0  0  0
 13 18  1  0  0  0  0
 13 14  1  0  0  0  0
 14 15  2  0  0  0  0
 14 37  1  0  0  0  0
 15 16  1  0  0  0  0
 15 23  1  0  0  0  0
 16 17  2  0  0  0  0
 16 21  1  0  0  0  0
 17 18  1  0  0  0  0
 17 38  1  0  0  0  0
 18 19  2  0  0  0  0
 19 20  1  0  0  0  0
 20 39  1  0  0  0  0
 21 22  1  0  0  0  0
 22 40  1  0  0  0  0
 22 41  1  0  0  0  0
 22 42  1  0  0  0  0
 23 24  1  0  0  0  0
 24 43  1  0  0  0  0
 24 44  1  0  0  0  0
 24 45  1  0  0  0  0
M  END
$$$$
ZINC03832257
  -OEChem-08230709403D

 41 44  0     0  0  0  0  0  0999 V2000
   -0.0216    1.1838   -0.1330 C   0  0  0  0  0  0  0  0  0  0  0  0
   -0.6316    1.4966    1.2348 C   0  0  0  0  0  0  0  0  0  0  0  0
    0.2218    0.9419    2.2885 N   0  0  0  0  0  0  0  0  0  0  0  0
    1.2315    1.7061    2.8174 C   0  0  0  0  0  0  0  0  0  0  0  0
    2.0626    1.1866    3.8330 C   0  0  0  0  0  0  0  0  0  0  0  0
    1.8609   -0.1280    4.3146 C   0  0  0  0  0  0  0  0  0  0  0  0
    0.8517   -0.8823    3.7812 C   0  0  0  0  0  0  0  0  0  0  0  0
    0.0039   -0.3110    2.7323 C   0  0  0  0  0  0  0  0  0  0  0  0
   -0.9002   -0.9740    2.2558 O   0  0  0  0  0  0  0  0  0  0  0  0
    0.6145   -2.2634    4.2650 C   0  0  0  0  0  0  0  0  0  0  0  0
    1.5647   -3.2609    4.0653 C   0  0  0  0  0  0  0  0  0  0  0  0
    1.3140   -4.5074    4.5252 C   0  0  0  0  0  0  0  0  0  0  0  0
   -0.3028   -4.3226    5.2581 S   0  0  0  0  0  0  0  0  0  0  0  0
   -0.5453   -2.5883    4.9128 C   0  0  0  0  0  0  0  0  0  0  0  0
    3.0828    2.0004    4.3469 C   0  0  0  0  0  0  0  0  0  0  0  0
    3.2245    3.2192    3.8600 N   0  0  0  0  0  0  0  0  0  0  0  0
    2.4233    3.6750    2.9036 C   0  0  0  0  0  0  0  0  0  0  0  0
    1.4471    2.9443    2.3876 N   0  0  0  0  0  0  0  0  0  0  0  0
    2.6161    4.9591    2.4294 N   0  0  0  0  0  0  0  0  0  0  0  0
    3.5620    5.7927    3.0333 C   0  0  0  0  0  0  0  0  0  0  0  0
    3.7905    5.7098    4.4010 C   0  0  0  0  0  0  0  0  0  0  0  0
    4.7297    6.5308    4.9935 C   0  0  0  0  0  0  0  0  0  0  0  0
    5.4345    7.4422    4.2287 C   0  0  0  0  0  0  0  0  0  0  0  0
    5.2050    7.5316    2.8679 C   0  0  0  0  0  0  0  0  0  0  0  0
    4.2713    6.7096    2.2681 C   0  0  0  0  0  0  0  0  0  0  0  0
    0.0548    0.1038   -0.2583 H   0  0  0  0  0  0  0  0  0  0  0  0
    0.9715    1.6283   -0.1981 H   0  0  0  0  0  0  0  0  0  0  0  0
   -0.6566    1.5965   -0.9169 H   0  0  0  0  0  0  0  0  0  0  0  0
   -0.7081    2.5767    1.3602 H   0  0  0  0  0  0  0  0  0  0  0  0
   -1.6247    1.0521    1.3000 H   0  0  0  0  0  0  0  0  0  0  0  0
    2.4938   -0.5301    5.0918 H   0  0  0  0  0  0  0  0  0  0  0  0
    2.4902   -3.0414    3.5537 H   0  0  0  0  0  0  0  0  0  0  0  0
    1.9324   -5.3905    4.4616 H   0  0  0  0  0  0  0  0  0  0  0  0
   -1.3890   -1.9585    5.1533 H   0  0  0  0  0  0  0  0  0  0  0  0
    3.7388    1.6374    5.1243 H   0  0  0  0  0  0  0  0  0  0  0  0
    2.0950    5.2817    1.6775 H   0  0  0  0  0  0  0  0  0  0  0  0
    3.2372    5.0013    4.9996 H   0  0  0  0  0  0  0  0  0  0  0  0
    4.9108    6.4640    6.0561 H   0  0  0  0  0  0  0  0  0  0  0  0
    6.1655    8.0859    4.6952 H   0  0  0  0  0  0  0  0  0  0  0  0
    5.7569    8.2447    2.2735 H   0  0  0  0  0  0  0  0  0  0  0  0
    4.0926    6.7799    1.2053 H   0  0  0  0  0  0  0  0  0  0  0  0
  1  2  1  0  0  0  0
  1 26  1  0  0  0  0
  1 27  1  0  0  0  0
  1 28  1  0  0  0  0
  2  3  1  0  0  0  0
  2 29  1  0  0  0  0
  2 30  1  0  0  0  0
  3  8  1  0  0  0  0
  3  4  1  0  0  0  0
  4 18  2  0  0  0  0
  4  5  1  0  0  0  0
  5  6  1  0  0  0  0
  5 15  2  0  0  0  0
  6  7  2  0  0  0  0
  6 31  1  0  0  0  0
  7  8  1  0  0  0  0
  7 10  1  0  0  0  0
  8  9  2  0  0  0  0
 10 14  2  0  0  0  0
 10 11  1  0  0  0  0
 11 12  2  0  0  0  0
 11 32  1  0  0  0  0
 12 13  1  0  0  0  0
 12 33  1  0  0  0  0
 13 14  1  0  0  0  0
 14 34  1  0  0  0  0
 15 16  1  0  0  0  0
 15 35  1  0  0  0  0
 16 17  2  0  0  0  0
 17 18  1  0  0  0  0
 17 19  1  0  0  0  0
 19 20  1  0  0  0  0
 19 36  1  0  0  0  0
 20 25  2  0  0  0  0
 20 21  1  0  0  0  0
 21 22  2  0  0  0  0
 21 37  1  0  0  0  0
 22 23  1  0  0  0  0
 22 38  1  0  0  0  0
 23 24  2  0  0  0  0
 23 39  1  0  0  0  0
 24 25  1  0  0  0  0
 24 40  1  0  0  0  0
 25 41  1  0  0  0  0
M  END
$$$$
ZINC03832258
  -OEChem-08230709403D

 39 41  0     0  0  0  0  0  0999 V2000
   -3.4049    3.7848    0.0395 C   0  0  0  0  0  0  0  0  0  0  0  0
   -3.2972    2.7615   -0.8843 C   0  0  0  0  0  0  0  0  0  0  0  0
   -2.1756    1.9556   -0.8967 C   0  0  0  0  0  0  0  0  0  0  0  0
   -1.1555    2.1739    0.0196 C   0  0  0  0  0  0  0  0  0  0  0  0
   -1.2691    3.1986    0.9496 C   0  0  0  0  0  0  0  0  0  0  0  0
   -2.3904    4.0050    0.9530 C   0  0  0  0  0  0  0  0  0  0  0  0
   -0.0164    1.3581    0.0095 N   0  0  0  0  0  0  0  0  0  0  0  0
    0.0021   -0.0041    0.0020 C   0  0  0  0  0  0  0  0  0  0  0  0
    1.2301   -0.4342   -0.0120 N   0  0  0  0  0  0  0  0  0  0  0  0
    2.0853    0.6208   -0.0145 C   0  0  0  0  0  0  0  0  0  0  0  0
    1.3001    1.7861   -0.0008 C   0  0  0  0  0  0  0  0  0  0  0  0
    1.9078    3.0332    0.0006 C   0  0  0  0  0  0  0  0  0  0  0  0
    3.2830    3.1275   -0.0120 C   0  0  0  0  0  0  0  0  0  0  0  0
    4.0676    1.9781   -0.0261 C   0  0  0  0  0  0  0  0  0  0  0  0
    3.4782    0.7294   -0.0272 C   0  0  0  0  0  0  0  0  0  0  0  0
    5.4231    2.0854   -0.0385 O   0  0  0  0  0  0  0  0  0  0  0  0
    5.9693    3.4059   -0.0366 C   0  0  0  0  0  0  0  0  0  0  0  0
    7.4972    3.3258   -0.0516 C   0  0  0  0  0  0  0  0  0  0  0  0
    8.0821    4.7396   -0.0496 C   0  0  0  0  0  0  0  0  0  0  0  0
    9.6099    4.6594   -0.0646 C   0  0  0  0  0  0  0  0  0  0  0  0
   10.1562    5.9799   -0.0627 O   0  0  0  0  0  0  0  0  0  0  0  0
   -4.2829    4.4137    0.0472 H   0  0  0  0  0  0  0  0  0  0  0  0
   -4.0909    2.5924   -1.5970 H   0  0  0  0  0  0  0  0  0  0  0  0
   -2.0920    1.1567   -1.6187 H   0  0  0  0  0  0  0  0  0  0  0  0
   -0.4793    3.3680    1.6665 H   0  0  0  0  0  0  0  0  0  0  0  0
   -2.4774    4.8050    1.6733 H   0  0  0  0  0  0  0  0  0  0  0  0
   -0.8746   -0.6349    0.0070 H   0  0  0  0  0  0  0  0  0  0  0  0
    1.3044    3.9288    0.0119 H   0  0  0  0  0  0  0  0  0  0  0  0
    3.7544    4.0992   -0.0106 H   0  0  0  0  0  0  0  0  0  0  0  0
    4.0913   -0.1596   -0.0382 H   0  0  0  0  0  0  0  0  0  0  0  0
    5.6250    3.9428   -0.9205 H   0  0  0  0  0  0  0  0  0  0  0  0
    5.6420    3.9333    0.8594 H   0  0  0  0  0  0  0  0  0  0  0  0
    7.8415    2.7888    0.8323 H   0  0  0  0  0  0  0  0  0  0  0  0
    7.8246    2.7984   -0.9476 H   0  0  0  0  0  0  0  0  0  0  0  0
    7.7377    5.2765   -0.9335 H   0  0  0  0  0  0  0  0  0  0  0  0
    7.7547    5.2669    0.8464 H   0  0  0  0  0  0  0  0  0  0  0  0
    9.9543    4.1225    0.8193 H   0  0  0  0  0  0  0  0  0  0  0  0
    9.9373    4.1321   -0.9606 H   0  0  0  0  0  0  0  0  0  0  0  0
   11.1228    6.0057   -0.0718 H   0  0  0  0  0  0  0  0  0  0  0  0
  1  6  2  0  0  0  0
  1  2  1  0  0  0  0
  1 22  1  0  0  0  0
  2  3  2  0  0  0  0
  2 23  1  0  0  0  0
  3  4  1  0  0  0  0
  3 24  1  0  0  0  0
  4  5  2  0  0  0  0
  4  7  1  0  0  0  0
  5  6  1  0  0  0  0
  5 25  1  0  0  0  0
  6 26  1  0  0  0  0
  7 11  1  0  0  0  0
  7  8  1  0  0  0  0
  8  9  2  0  0  0  0
  8 27  1  0  0  0  0
  9 10  1  0  0  0  0
 10 15  2  0  0  0  0
 10 11  1  0  0  0  0
 11 12  2  0  0  0  0
 12 13  1  0  0  0  0
 12 28  1  0  0  0  0
 13 14  2  0  0  0  0
 13 29  1  0  0  0  0
 14 15  1  0  0  0  0
 14 16  1  0  0  0  0
 15 30  1  0  0  0  0
 16 17  1  0  0  0  0
 17 18  1  0  0  0  0
 17 31  1  0  0  0  0
 17 32  1  0  0  0  0
 18 19  1  0  0  0  0
 18 33  1  0  0  0  0
 18 34  1  0  0  0  0
 19 20  1  0  0  0  0
 19 35  1  0  0  0  0
 19 36  1  0  0  0  0
 20 21  1  0  0  0  0
 20 37  1  0  0  0  0
 20 38  1  0  0  0  0
 21 39  1  0  0  0  0
M  END
$$$$
ZINC03832259
  -OEChem-08230709403D

 37 40  0     0  0  0  0  0  0999 V2000
   -3.6611    3.2395    0.1640 C   0  0  0  0  0  0  0  0  0  0  0  0
   -2.4148    3.9877    0.3462 N   0  0  0  0  0  0  0  0  0  0  0  0
   -1.2155    3.3206    0.3440 C   0  0  0  0  0  0  0  0  0  0  0  0
   -0.0059    4.0265    0.5186 C   0  0  0  0  0  0  0  0  0  0  0  0
   -0.0202    5.4297    0.6972 C   0  0  0  0  0  0  0  0  0  0  0  0
   -1.2207    6.0859    0.6989 C   0  0  0  0  0  0  0  0  0  0  0  0
   -2.4577    5.3234    0.5146 C   0  0  0  0  0  0  0  0  0  0  0  0
   -3.5307    5.9001    0.5140 O   0  0  0  0  0  0  0  0  0  0  0  0
   -1.2691    7.5559    0.8847 C   0  0  0  0  0  0  0  0  0  0  0  0
   -0.8680    8.1356    2.0850 C   0  0  0  0  0  0  0  0  0  0  0  0
   -0.9214    9.4804    2.2143 C   0  0  0  0  0  0  0  0  0  0  0  0
   -1.5624    9.9882    0.6280 S   0  0  0  0  0  0  0  0  0  0  0  0
   -1.7141    8.3734   -0.1173 C   0  0  0  0  0  0  0  0  0  0  0  0
    1.1979    3.3072    0.5100 C   0  0  0  0  0  0  0  0  0  0  0  0
    1.1511    1.9989    0.3389 N   0  0  0  0  0  0  0  0  0  0  0  0
   -0.0062    1.3677    0.1775 C   0  0  0  0  0  0  0  0  0  0  0  0
   -1.1671    2.0042    0.1729 N   0  0  0  0  0  0  0  0  0  0  0  0
    0.0021   -0.0041    0.0020 N   0  0  0  0  0  0  0  0  0  0  0  0
    1.2126   -0.6839   -0.1184 C   0  0  0  0  0  0  0  0  0  0  0  0
    2.3106   -0.0858   -0.7361 C   0  0  0  0  0  0  0  0  0  0  0  0
    3.4924   -0.7905   -0.8305 C   0  0  0  0  0  0  0  0  0  0  0  0
    3.5881   -2.0180   -0.3550 N   0  0  0  0  0  0  0  0  0  0  0  0
    2.5706   -2.6201    0.2316 C   0  0  0  0  0  0  0  0  0  0  0  0
    1.3559   -1.9820    0.3705 C   0  0  0  0  0  0  0  0  0  0  0  0
   -4.0407    2.9238    1.1358 H   0  0  0  0  0  0  0  0  0  0  0  0
   -4.3987    3.8758   -0.3249 H   0  0  0  0  0  0  0  0  0  0  0  0
   -3.4711    2.3622   -0.4543 H   0  0  0  0  0  0  0  0  0  0  0  0
    0.9025    5.9745    0.8316 H   0  0  0  0  0  0  0  0  0  0  0  0
   -0.5155    7.5204    2.8997 H   0  0  0  0  0  0  0  0  0  0  0  0
   -0.6502   10.0911    3.0628 H   0  0  0  0  0  0  0  0  0  0  0  0
   -2.0658    8.1102   -1.1039 H   0  0  0  0  0  0  0  0  0  0  0  0
    2.1433    3.8126    0.6410 H   0  0  0  0  0  0  0  0  0  0  0  0
   -0.8347   -0.4931   -0.0372 H   0  0  0  0  0  0  0  0  0  0  0  0
    2.2376    0.9166   -1.1314 H   0  0  0  0  0  0  0  0  0  0  0  0
    4.3491   -0.3337   -1.3036 H   0  0  0  0  0  0  0  0  0  0  0  0
    2.6907   -3.6255    0.6073 H   0  0  0  0  0  0  0  0  0  0  0  0
    0.5271   -2.4807    0.8509 H   0  0  0  0  0  0  0  0  0  0  0  0
  1  2  1  0  0  0  0
  1 25  1  0  0  0  0
  1 26  1  0  0  0  0
  1 27  1  0  0  0  0
  2  7  1  0  0  0  0
  2  3  1  0  0  0  0
  3 17  2  0  0  0  0
  3  4  1  0  0  0  0
  4  5  1  0  0  0  0
  4 14  2  0  0  0  0
  5  6  2  0  0  0  0
  5 28  1  0  0  0  0
  6  7  1  0  0  0  0
  6  9  1  0  0  0  0
  7  8  2  0  0  0  0
  9 13  2  0  0  0  0
  9 10  1  0  0  0  0
 10 11  2  0  0  0  0
 10 29  1  0  0  0  0
 11 12  1  0  0  0  0
 11 30  1  0  0  0  0
 12 13  1  0  0  0  0
 13 31  1  0  0  0  0
 14 15  1  0  0  0  0
 14 32  1  0  0  0  0
 15 16  2  0  0  0  0
 16 17  1  0  0  0  0
 16 18  1  0  0  0  0
 18 19  1  0  0  0  0
 18 33  1  0  0  0  0
 19 24  2  0  0  0  0
 19 20  1  0  0  0  0
 20 21  2  0  0  0  0
 20 34  1  0  0  0  0
 21 22  1  0  0  0  0
 21 35  1  0  0  0  0
 22 23  2  0  0  0  0
 23 24  1  0  0  0  0
 23 36  1  0  0  0  0
 24 37  1  0  0  0  0
M  END
$$$$
ZINC03832260
  -OEChem-08230709403D

 50 52  0     0  0  0  0  0  0999 V2000
    3.3564   -5.4405   -0.7465 C   0  0  0  0  0  0  0  0  0  0  0  0
    2.0320   -4.6802   -0.8403 C   0  0  0  0  0  0  0  0  0  0  0  0
    2.2293   -3.2485   -0.3382 C   0  0  0  0  0  0  0  0  0  0  0  0
    0.9049   -2.4881   -0.4319 C   0  0  0  0  0  0  0  0  0  0  0  0
    1.1021   -1.0564    0.0702 C   0  0  0  0  0  0  0  0  0  0  0  0
   -0.2024   -0.3075   -0.0222 C   0  0  0  0  0  0  0  0  0  0  0  0
   -1.1924   -0.8641   -0.4477 O   0  0  0  0  0  0  0  0  0  0  0  0
   -0.2689    0.9808    0.3681 N   0  0  0  0  0  0  0  0  0  0  0  0
   -1.4546    1.7035    0.1963 C   0  0  0  0  0  0  0  0  0  0  0  0
   -1.4053    3.0559   -0.1190 C   0  0  0  0  0  0  0  0  0  0  0  0
   -2.5755    3.7691   -0.2935 C   0  0  0  0  0  0  0  0  0  0  0  0
   -3.7983    3.1432   -0.1449 C   0  0  0  0  0  0  0  0  0  0  0  0
   -3.8545    1.7925    0.1754 C   0  0  0  0  0  0  0  0  0  0  0  0
   -2.6806    1.0720    0.3462 C   0  0  0  0  0  0  0  0  0  0  0  0
   -5.0922    1.1598    0.3261 N   0  0  0  0  0  0  0  0  0  0  0  0
   -6.1718    1.8626    0.8359 C   0  0  0  0  0  0  0  0  0  0  0  0
   -5.9886    3.1007    1.2719 N   0  0  0  0  0  0  0  0  0  0  0  0
   -6.9945    3.8049    1.7655 C   0  0  0  0  0  0  0  0  0  0  0  0
   -8.2544    3.2355    1.8250 C   0  0  0  0  0  0  0  0  0  0  0  0
   -8.4170    1.9288    1.3581 C   0  0  0  0  0  0  0  0  0  0  0  0
   -7.3608    1.2821    0.8700 N   0  0  0  0  0  0  0  0  0  0  0  0
   -9.7471    1.2742    1.4003 C   0  0  0  0  0  0  0  0  0  0  0  0
   -9.9106   -0.0334    0.9332 C   0  0  0  0  0  0  0  0  0  0  0  0
  -11.1722   -0.5993    0.9944 C   0  0  0  0  0  0  0  0  0  0  0  0
  -12.2210    0.1399    1.5109 C   0  0  0  0  0  0  0  0  0  0  0  0
  -12.0362    1.3719    1.9442 N   0  0  0  0  0  0  0  0  0  0  0  0
  -10.8530    1.9503    1.9115 C   0  0  0  0  0  0  0  0  0  0  0  0
    3.2159   -6.4605   -1.1042 H   0  0  0  0  0  0  0  0  0  0  0  0
    4.1065   -4.9407   -1.3594 H   0  0  0  0  0  0  0  0  0  0  0  0
    3.6904   -5.4621    0.2908 H   0  0  0  0  0  0  0  0  0  0  0  0
    1.2819   -5.1801   -0.2274 H   0  0  0  0  0  0  0  0  0  0  0  0
    1.6981   -4.6587   -1.8776 H   0  0  0  0  0  0  0  0  0  0  0  0
    2.9794   -2.7486   -0.9510 H   0  0  0  0  0  0  0  0  0  0  0  0
    2.5632   -3.2700    0.6992 H   0  0  0  0  0  0  0  0  0  0  0  0
    0.1548   -2.9880    0.1810 H   0  0  0  0  0  0  0  0  0  0  0  0
    0.5709   -2.4666   -1.4693 H   0  0  0  0  0  0  0  0  0  0  0  0
    1.8522   -0.5565   -0.5427 H   0  0  0  0  0  0  0  0  0  0  0  0
    1.4361   -1.0779    1.1075 H   0  0  0  0  0  0  0  0  0  0  0  0
    0.5040    1.4058    0.7717 H   0  0  0  0  0  0  0  0  0  0  0  0
   -0.4511    3.5491   -0.2314 H   0  0  0  0  0  0  0  0  0  0  0  0
   -2.5344    4.8193   -0.5422 H   0  0  0  0  0  0  0  0  0  0  0  0
   -4.7113    3.7044   -0.2783 H   0  0  0  0  0  0  0  0  0  0  0  0
   -2.7215    0.0218    0.5949 H   0  0  0  0  0  0  0  0  0  0  0  0
   -5.1949    0.2289    0.0736 H   0  0  0  0  0  0  0  0  0  0  0  0
   -6.8338    4.8129    2.1183 H   0  0  0  0  0  0  0  0  0  0  0  0
   -9.0923    3.7883    2.2235 H   0  0  0  0  0  0  0  0  0  0  0  0
   -9.0738   -0.5877    0.5344 H   0  0  0  0  0  0  0  0  0  0  0  0
  -11.3358   -1.6074    0.6431 H   0  0  0  0  0  0  0  0  0  0  0  0
  -13.2067   -0.2987    1.5605 H   0  0  0  0  0  0  0  0  0  0  0  0
  -10.7402    2.9592    2.2799 H   0  0  0  0  0  0  0  0  0  0  0  0
  1  2  1  0  0  0  0
  1 28  1  0  0  0  0
  1 29  1  0  0  0  0
  1 30  1  0  0  0  0
  2  3  1  0  0  0  0
  2 31  1  0  0  0  0
  2 32  1  0  0  0  0
  3  4  1  0  0  0  0
  3 33  1  0  0  0  0
  3 34  1  0  0  0  0
  4  5  1  0  0  0  0
  4 35  1  0  0  0  0
  4 36  1  0  0  0  0
  5  6  1  0  0  0  0
  5 37  1  0  0  0  0
  5 38  1  0  0  0  0
  6  7  2  0  0  0  0
  6  8  1  0  0  0  0
  8  9  1  0  0  0  0
  8 39  1  0  0  0  0
  9 14  2  0  0  0  0
  9 10  1  0  0  0  0
 10 11  2  0  0  0  0
 10 40  1  0  0  0  0
 11 12  1  0  0  0  0
 11 41  1  0  0  0  0
 12 13  2  0  0  0  0
 12 42  1  0  0  0  0
 13 14  1  0  0  0  0
 13 15  1  0  0  0  0
 14 43  1  0  0  0  0
 15 16  1  0  0  0  0
 15 44  1  0  0  0  0
 16 21  2  0  0  0  0
 16 17  1  0  0  0  0
 17 18  2  0  0  0  0
 18 19  1  0  0  0  0
 18 45  1  0  0  0  0
 19 20  2  0  0  0  0
 19 46  1  0  0  0  0
 20 21  1  0  0  0  0
 20 22  1  0  0  0  0
 22 27  2  0  0  0  0
 22 23  1  0  0  0  0
 23 24  2  0  0  0  0
 23 47  1  0  0  0  0
 24 25  1  0  0  0  0
 24 48  1  0  0  0  0
 25 26  2  0  0  0  0
 25 49  1  0  0  0  0
 26 27  1  0  0  0  0
 27 50  1  0  0  0  0
M  END
$$$$
ZINC03832261
  -OEChem-08230709403D

 30 32  0     0  0  0  0  0  0999 V2000
   -0.0127    1.0858    0.0080 C   0  0  0  0  0  0  0  0  0  0  0  0
   -0.6816    1.5467    1.1837 O   0  0  0  0  0  0  0  0  0  0  0  0
   -0.7873    2.8910    1.3461 C   0  0  0  0  0  0  0  0  0  0  0  0
   -0.2453    3.7480    0.3823 C   0  0  0  0  0  0  0  0  0  0  0  0
   -0.3417    5.0973    0.5181 C   0  0  0  0  0  0  0  0  0  0  0  0
   -0.9832    5.6431    1.6438 C   0  0  0  0  0  0  0  0  0  0  0  0
   -1.0935    7.0336    1.8132 C   0  0  0  0  0  0  0  0  0  0  0  0
   -1.7398    7.5029    2.9479 C   0  0  0  0  0  0  0  0  0  0  0  0
   -2.2562    6.5875    3.8784 C   0  0  0  0  0  0  0  0  0  0  0  0
   -2.1435    5.2953    3.7028 N   0  0  0  0  0  0  0  0  0  0  0  0
   -1.5312    4.7828    2.6290 C   0  0  0  0  0  0  0  0  0  0  0  0
   -1.4214    3.3933    2.4594 C   0  0  0  0  0  0  0  0  0  0  0  0
   -1.8835    8.9612    3.1762 C   0  0  0  0  0  0  0  0  0  0  0  0
   -1.3695    9.8853    2.2617 C   0  0  0  0  0  0  0  0  0  0  0  0
   -1.5298   11.2328    2.5102 C   0  0  0  0  0  0  0  0  0  0  0  0
   -2.1484   11.6520    3.5976 N   0  0  0  0  0  0  0  0  0  0  0  0
   -2.6433   10.8135    4.4879 C   0  0  0  0  0  0  0  0  0  0  0  0
   -2.5316    9.4494    4.3146 C   0  0  0  0  0  0  0  0  0  0  0  0
    0.0021   -0.0041    0.0020 H   0  0  0  0  0  0  0  0  0  0  0  0
    1.0099    1.4631    0.0003 H   0  0  0  0  0  0  0  0  0  0  0  0
   -0.5399    1.4469   -0.8751 H   0  0  0  0  0  0  0  0  0  0  0  0
    0.2519    3.3328   -0.4819 H   0  0  0  0  0  0  0  0  0  0  0  0
    0.0775    5.7485   -0.2346 H   0  0  0  0  0  0  0  0  0  0  0  0
   -0.6870    7.7168    1.0822 H   0  0  0  0  0  0  0  0  0  0  0  0
   -2.7580    6.9581    4.7600 H   0  0  0  0  0  0  0  0  0  0  0  0
   -1.8322    2.7221    3.1991 H   0  0  0  0  0  0  0  0  0  0  0  0
   -0.8578    9.5492    1.3720 H   0  0  0  0  0  0  0  0  0  0  0  0
   -1.1401   11.9543    1.8073 H   0  0  0  0  0  0  0  0  0  0  0  0
   -3.1423   11.2002    5.3642 H   0  0  0  0  0  0  0  0  0  0  0  0
   -2.9391    8.7688    5.0475 H   0  0  0  0  0  0  0  0  0  0  0  0
  1  2  1  0  0  0  0
  1 19  1  0  0  0  0
  1 20  1  0  0  0  0
  1 21  1  0  0  0  0
  2  3  1  0  0  0  0
  3 12  2  0  0  0  0
  3  4  1  0  0  0  0
  4  5  2  0  0  0  0
  4 22  1  0  0  0  0
  5  6  1  0  0  0  0
  5 23  1  0  0  0  0
  6 11  2  0  0  0  0
  6  7  1  0  0  0  0
  7  8  2  0  0  0  0
  7 24  1  0  0  0  0
  8  9  1  0  0  0  0
  8 13  1  0  0  0  0
  9 10  2  0  0  0  0
  9 25  1  0  0  0  0
 10 11  1  0  0  0  0
 11 12  1  0  0  0  0
 12 26  1  0  0  0  0
 13 18  2  0  0  0  0
 13 14  1  0  0  0  0
 14 15  2  0  0  0  0
 14 27  1  0  0  0  0
 15 16  1  0  0  0  0
 15 28  1  0  0  0  0
 16 17  2  0  0  0  0
 17 18  1  0  0  0  0
 17 29  1  0  0  0  0
 18 30  1  0  0  0  0
M  END
$$$$
ZINC03832262
  -OEChem-08230709403D

 35 37  0     0  0  0  0  0  0999 V2000
   -3.4049    3.7848    0.0395 C   0  0  0  0  0  0  0  0  0  0  0  0
   -3.2972    2.7615   -0.8843 C   0  0  0  0  0  0  0  0  0  0  0  0
   -2.1756    1.9556   -0.8967 C   0  0  0  0  0  0  0  0  0  0  0  0
   -1.1555    2.1739    0.0196 C   0  0  0  0  0  0  0  0  0  0  0  0
   -1.2691    3.1986    0.9496 C   0  0  0  0  0  0  0  0  0  0  0  0
   -2.3904    4.0050    0.9530 C   0  0  0  0  0  0  0  0  0  0  0  0
   -0.0164    1.3581    0.0095 N   0  0  0  0  0  0  0  0  0  0  0  0
    0.0021   -0.0041    0.0020 C   0  0  0  0  0  0  0  0  0  0  0  0
    1.2301   -0.4342   -0.0120 N   0  0  0  0  0  0  0  0  0  0  0  0
    2.0853    0.6208   -0.0145 C   0  0  0  0  0  0  0  0  0  0  0  0
    1.3001    1.7861   -0.0008 C   0  0  0  0  0  0  0  0  0  0  0  0
    1.9078    3.0332    0.0006 C   0  0  0  0  0  0  0  0  0  0  0  0
    3.2830    3.1275   -0.0120 C   0  0  0  0  0  0  0  0  0  0  0  0
    4.0676    1.9781   -0.0261 C   0  0  0  0  0  0  0  0  0  0  0  0
    3.4782    0.7294   -0.0272 C   0  0  0  0  0  0  0  0  0  0  0  0
    5.4231    2.0854   -0.0385 O   0  0  0  0  0  0  0  0  0  0  0  0
    5.9693    3.4059   -0.0366 C   0  0  0  0  0  0  0  0  0  0  0  0
    7.4972    3.3258   -0.0516 C   0  0  0  0  0  0  0  0  0  0  0  0
   -4.2829    4.4137    0.0472 H   0  0  0  0  0  0  0  0  0  0  0  0
   -4.0909    2.5924   -1.5970 H   0  0  0  0  0  0  0  0  0  0  0  0
   -2.0920    1.1567   -1.6187 H   0  0  0  0  0  0  0  0  0  0  0  0
   -0.4793    3.3680    1.6665 H   0  0  0  0  0  0  0  0  0  0  0  0
   -2.4774    4.8050    1.6733 H   0  0  0  0  0  0  0  0  0  0  0  0
   -0.8746   -0.6349    0.0070 H   0  0  0  0  0  0  0  0  0  0  0  0
    1.3044    3.9288    0.0119 H   0  0  0  0  0  0  0  0  0  0  0  0
    3.7544    4.0992   -0.0106 H   0  0  0  0  0  0  0  0  0  0  0  0
    4.0913   -0.1596   -0.0382 H   0  0  0  0  0  0  0  0  0  0  0  0
    5.6250    3.9428   -0.9205 H   0  0  0  0  0  0  0  0  0  0  0  0
    5.6420    3.9333    0.8594 H   0  0  0  0  0  0  0  0  0  0  0  0
    7.9145    4.3286    0.0394 H   0  0  0  0  0  0  0  0  0  0  0  0
    7.8371    2.7136    0.7837 H   0  0  0  0  0  0  0  0  0  0  0  0
    7.5866    3.2356   -2.1064 H   0  0  0  0  0  0  0  0  0  0  0  0
    8.9499    2.6583   -1.3488 H   0  0  0  0  0  0  0  0  0  0  0  0
    7.9327    2.6995   -1.3124 N   0  3  0  0  0  0  0  0  0  0  0  0
    7.5567    1.7454   -1.3628 H   0  0  0  0  0  0  0  0  0  0  0  0
  1  6  2  0  0  0  0
  1  2  1  0  0  0  0
  1 19  1  0  0  0  0
  2  3  2  0  0  0  0
  2 20  1  0  0  0  0
  3  4  1  0  0  0  0
  3 21  1  0  0  0  0
  4  5  2  0  0  0  0
  4  7  1  0  0  0  0
  5  6  1  0  0  0  0
  5 22  1  0  0  0  0
  6 23  1  0  0  0  0
  7 11  1  0  0  0  0
  7  8  1  0  0  0  0
  8  9  2  0  0  0  0
  8 24  1  0  0  0  0
  9 10  1  0  0  0  0
 10 15  2  0  0  0  0
 10 11  1  0  0  0  0
 11 12  2  0  0  0  0
 12 13  1  0  0  0  0
 12 25  1  0  0  0  0
 13 14  2  0  0  0  0
 13 26  1  0  0  0  0
 14 15  1  0  0  0  0
 14 16  1  0  0  0  0
 15 27  1  0  0  0  0
 16 17  1  0  0  0  0
 17 18  1  0  0  0  0
 17 28  1  0  0  0  0
 17 29  1  0  0  0  0
 18 30  1  0  0  0  0
 18 31  1  0  0  0  0
 18 34  1  0  0  0  0
 32 34  1  0  0  0  0
 33 34  1  0  0  0  0
 34 35  1  0  0  0  0
M  CHG  1  34   1
M  END
$$$$
ZINC03832263
  -OEChem-08230709403D

 46 49  0     0  0  0  0  0  0999 V2000
   -3.4088    3.6630    0.1195 C   0  0  0  0  0  0  0  0  0  0  0  0
   -3.2972    2.5605   -0.7076 C   0  0  0  0  0  0  0  0  0  0  0  0
   -2.1653    1.7704   -0.6587 C   0  0  0  0  0  0  0  0  0  0  0  0
   -1.1389    2.0843    0.2222 C   0  0  0  0  0  0  0  0  0  0  0  0
   -1.2562    3.1890    1.0551 C   0  0  0  0  0  0  0  0  0  0  0  0
   -2.3883    3.9782    0.9978 C   0  0  0  0  0  0  0  0  0  0  0  0
    0.0103    1.2845    0.2745 N   0  0  0  0  0  0  0  0  0  0  0  0
    0.0460   -0.0723    0.3924 C   0  0  0  0  0  0  0  0  0  0  0  0
    1.2792   -0.4874    0.4043 N   0  0  0  0  0  0  0  0  0  0  0  0
    2.1209    0.5729    0.2950 C   0  0  0  0  0  0  0  0  0  0  0  0
    1.3211    1.7251    0.2102 C   0  0  0  0  0  0  0  0  0  0  0  0
    1.9129    2.9740    0.0890 C   0  0  0  0  0  0  0  0  0  0  0  0
    3.2865    3.0828    0.0510 C   0  0  0  0  0  0  0  0  0  0  0  0
    4.0855    1.9463    0.1345 C   0  0  0  0  0  0  0  0  0  0  0  0
    3.5120    0.6961    0.2559 C   0  0  0  0  0  0  0  0  0  0  0  0
    5.4393    2.0679    0.0959 O   0  0  0  0  0  0  0  0  0  0  0  0
    5.9687    3.3891   -0.0309 C   0  0  0  0  0  0  0  0  0  0  0  0
    7.4971    3.3258   -0.0569 C   0  0  0  0  0  0  0  0  0  0  0  0
    9.3171    2.1297   -1.1171 C   0  0  0  0  0  0  0  0  0  0  0  0
    9.7135    1.3455   -2.3708 C   0  0  0  0  0  0  0  0  0  0  0  0
    9.5535    2.1812   -3.5203 O   0  0  0  0  0  0  0  0  0  0  0  0
    8.2212    2.6710   -3.6950 C   0  0  0  0  0  0  0  0  0  0  0  0
    7.8097    3.4686   -2.4547 C   0  0  0  0  0  0  0  0  0  0  0  0
   -4.2946    4.2795    0.0791 H   0  0  0  0  0  0  0  0  0  0  0  0
   -4.0957    2.3171   -1.3928 H   0  0  0  0  0  0  0  0  0  0  0  0
   -2.0786    0.9096   -1.3051 H   0  0  0  0  0  0  0  0  0  0  0  0
   -0.4615    3.4330    1.7445 H   0  0  0  0  0  0  0  0  0  0  0  0
   -2.4783    4.8399    1.6425 H   0  0  0  0  0  0  0  0  0  0  0  0
   -0.8224   -0.7102    0.4649 H   0  0  0  0  0  0  0  0  0  0  0  0
    1.2982    3.8597    0.0237 H   0  0  0  0  0  0  0  0  0  0  0  0
    3.7454    4.0559   -0.0437 H   0  0  0  0  0  0  0  0  0  0  0  0
    4.1363   -0.1829    0.3200 H   0  0  0  0  0  0  0  0  0  0  0  0
    5.6078    3.8379   -0.9563 H   0  0  0  0  0  0  0  0  0  0  0  0
    5.6445    3.9932    0.8165 H   0  0  0  0  0  0  0  0  0  0  0  0
    7.9026    4.3375   -0.0629 H   0  0  0  0  0  0  0  0  0  0  0  0
    7.8540    2.7965    0.8266 H   0  0  0  0  0  0  0  0  0  0  0  0
    9.9896    2.9781   -0.9907 H   0  0  0  0  0  0  0  0  0  0  0  0
    9.3830    1.4792   -0.2450 H   0  0  0  0  0  0  0  0  0  0  0  0
    9.0753    0.4672   -2.4677 H   0  0  0  0  0  0  0  0  0  0  0  0
   10.7544    1.0320   -2.2909 H   0  0  0  0  0  0  0  0  0  0  0  0
    7.5395    1.8312   -3.8303 H   0  0  0  0  0  0  0  0  0  0  0  0
    8.1829    3.3168   -4.5722 H   0  0  0  0  0  0  0  0  0  0  0  0
    6.7751    3.7955   -2.5589 H   0  0  0  0  0  0  0  0  0  0  0  0
    8.4581    4.3385   -2.3497 H   0  0  0  0  0  0  0  0  0  0  0  0
    7.9220    2.5927   -1.2691 N   0  3  0  0  0  0  0  0  0  0  0  0
    7.3114    1.7772   -1.3971 H   0  0  0  0  0  0  0  0  0  0  0  0
  1  6  2  0  0  0  0
  1  2  1  0  0  0  0
  1 24  1  0  0  0  0
  2  3  2  0  0  0  0
  2 25  1  0  0  0  0
  3  4  1  0  0  0  0
  3 26  1  0  0  0  0
  4  5  2  0  0  0  0
  4  7  1  0  0  0  0
  5  6  1  0  0  0  0
  5 27  1  0  0  0  0
  6 28  1  0  0  0  0
  7 11  1  0  0  0  0
  7  8  1  0  0  0  0
  8  9  2  0  0  0  0
  8 29  1  0  0  0  0
  9 10  1  0  0  0  0
 10 15  2  0  0  0  0
 10 11  1  0  0  0  0
 11 12  2  0  0  0  0
 12 13  1  0  0  0  0
 12 30  1  0  0  0  0
 13 14  2  0  0  0  0
 13 31  1  0  0  0  0
 14 15  1  0  0  0  0
 14 16  1  0  0  0  0
 15 32  1  0  0  0  0
 16 17  1  0  0  0  0
 17 18  1  0  0  0  0
 17 33  1  0  0  0  0
 17 34  1  0  0  0  0
 18 35  1  0  0  0  0
 18 36  1  0  0  0  0
 18 45  1  0  0  0  0
 19 20  1  0  0  0  0
 19 37  1  0  0  0  0
 19 38  1  0  0  0  0
 19 45  1  0  0  0  0
 20 21  1  0  0  0  0
 20 39  1  0  0  0  0
 20 40  1  0  0  0  0
 21 22  1  0  0  0  0
 22 23  1  0  0  0  0
 22 41  1  0  0  0  0
 22 42  1  0  0  0  0
 23 43  1  0  0  0  0
 23 44  1  0  0  0  0
 23 45  1  0  0  0  0
 45 46  1  0  0  0  0
M  CHG  1  45   1
M  END
$$$$
ZINC03832264
  -OEChem-08230709403D

 51 54  0     0  0  0  0  0  0999 V2000
    1.3096    3.4162   -0.7603 C   0  0  0  0  0  0  0  0  0  0  0  0
    1.2090    2.1205   -0.2912 C   0  0  0  0  0  0  0  0  0  0  0  0
   -0.0409    1.5537   -0.0749 C   0  0  0  0  0  0  0  0  0  0  0  0
   -1.1890    2.2886   -0.3359 C   0  0  0  0  0  0  0  0  0  0  0  0
   -1.0842    3.5908   -0.8022 C   0  0  0  0  0  0  0  0  0  0  0  0
    0.1688    4.1520   -1.0161 C   0  0  0  0  0  0  0  0  0  0  0  0
   -2.2392    4.3368   -1.0619 N   0  0  0  0  0  0  0  0  0  0  0  0
   -2.2473    5.6659   -0.8390 C   0  0  0  0  0  0  0  0  0  0  0  0
   -1.2867    6.2008   -0.3270 O   0  0  0  0  0  0  0  0  0  0  0  0
   -3.4500    6.4875   -1.2258 C   0  0  0  0  0  0  0  0  0  0  0  0
   -3.6891    6.3639   -2.7319 C   0  0  0  0  0  0  0  0  0  0  0  0
   -4.9101    7.1980   -3.1246 C   0  0  0  0  0  0  0  0  0  0  0  0
   -4.6625    8.6647   -2.7663 C   0  0  0  0  0  0  0  0  0  0  0  0
   -4.4234    8.7883   -1.2601 C   0  0  0  0  0  0  0  0  0  0  0  0
   -3.2024    7.9542   -0.8674 C   0  0  0  0  0  0  0  0  0  0  0  0
   -0.1420    0.2425    0.3998 N   0  0  0  0  0  0  0  0  0  0  0  0
   -1.1826   -0.1104    1.2436 C   0  0  0  0  0  0  0  0  0  0  0  0
   -2.0085    0.8305    1.6786 N   0  0  0  0  0  0  0  0  0  0  0  0
   -3.0144    0.5338    2.4858 C   0  0  0  0  0  0  0  0  0  0  0  0
   -3.2023   -0.7798    2.8786 C   0  0  0  0  0  0  0  0  0  0  0  0
   -2.3157   -1.7497    2.4039 C   0  0  0  0  0  0  0  0  0  0  0  0
   -1.3295   -1.3792    1.5904 N   0  0  0  0  0  0  0  0  0  0  0  0
   -2.4749   -3.1713    2.7954 C   0  0  0  0  0  0  0  0  0  0  0  0
   -1.5881   -4.1425    2.3209 C   0  0  0  0  0  0  0  0  0  0  0  0
   -1.7797   -5.4552    2.7156 C   0  0  0  0  0  0  0  0  0  0  0  0
   -2.8324   -5.7614    3.5589 C   0  0  0  0  0  0  0  0  0  0  0  0
   -3.6531   -4.8233    3.9905 N   0  0  0  0  0  0  0  0  0  0  0  0
   -3.5073   -3.5600    3.6467 C   0  0  0  0  0  0  0  0  0  0  0  0
    2.2824    3.8549   -0.9271 H   0  0  0  0  0  0  0  0  0  0  0  0
    2.1028    1.5478   -0.0923 H   0  0  0  0  0  0  0  0  0  0  0  0
   -2.1618    1.8489   -0.1724 H   0  0  0  0  0  0  0  0  0  0  0  0
    0.2509    5.1644   -1.3830 H   0  0  0  0  0  0  0  0  0  0  0  0
   -3.0341    3.8972   -1.4024 H   0  0  0  0  0  0  0  0  0  0  0  0
   -4.3260    6.1249   -0.6879 H   0  0  0  0  0  0  0  0  0  0  0  0
   -2.8131    6.7265   -3.2698 H   0  0  0  0  0  0  0  0  0  0  0  0
   -3.8655    5.3190   -2.9872 H   0  0  0  0  0  0  0  0  0  0  0  0
   -5.7861    6.8354   -2.5867 H   0  0  0  0  0  0  0  0  0  0  0  0
   -5.0805    7.1099   -4.1976 H   0  0  0  0  0  0  0  0  0  0  0  0
   -5.5324    9.2589   -3.0460 H   0  0  0  0  0  0  0  0  0  0  0  0
   -3.7866    9.0273   -3.3042 H   0  0  0  0  0  0  0  0  0  0  0  0
   -5.2994    8.4257   -0.7222 H   0  0  0  0  0  0  0  0  0  0  0  0
   -4.2470    9.8332   -1.0048 H   0  0  0  0  0  0  0  0  0  0  0  0
   -3.0321    8.0423    0.2056 H   0  0  0  0  0  0  0  0  0  0  0  0
   -2.3265    8.3168   -1.4053 H   0  0  0  0  0  0  0  0  0  0  0  0
    0.5163   -0.4201    0.1382 H   0  0  0  0  0  0  0  0  0  0  0  0
   -3.6812    1.3085    2.8345 H   0  0  0  0  0  0  0  0  0  0  0  0
   -4.0151   -1.0488    3.5369 H   0  0  0  0  0  0  0  0  0  0  0  0
   -0.7745   -3.8752    1.6628 H   0  0  0  0  0  0  0  0  0  0  0  0
   -1.1141   -6.2320    2.3691 H   0  0  0  0  0  0  0  0  0  0  0  0
   -2.9846   -6.7846    3.8691 H   0  0  0  0  0  0  0  0  0  0  0  0
   -4.1969   -2.8196    4.0244 H   0  0  0  0  0  0  0  0  0  0  0  0
  1  6  2  0  0  0  0
  1  2  1  0  0  0  0
  1 29  1  0  0  0  0
  2  3  2  0  0  0  0
  2 30  1  0  0  0  0
  3  4  1  0  0  0  0
  3 16  1  0  0  0  0
  4  5  2  0  0  0  0
  4 31  1  0  0  0  0
  5  6  1  0  0  0  0
  5  7  1  0  0  0  0
  6 32  1  0  0  0  0
  7  8  1  0  0  0  0
  7 33  1  0  0  0  0
  8  9  2  0  0  0  0
  8 10  1  0  0  0  0
 10 15  1  0  0  0  0
 10 11  1  0  0  0  0
 10 34  1  0  0  0  0
 11 12  1  0  0  0  0
 11 35  1  0  0  0  0
 11 36  1  0  0  0  0
 12 13  1  0  0  0  0
 12 37  1  0  0  0  0
 12 38  1  0  0  0  0
 13 14  1  0  0  0  0
 13 39  1  0  0  0  0
 13 40  1  0  0  0  0
 14 15  1  0  0  0  0
 14 41  1  0  0  0  0
 14 42  1  0  0  0  0
 15 43  1  0  0  0  0
 15 44  1  0  0  0  0
 16 17  1  0  0  0  0
 16 45  1  0  0  0  0
 17 22  2  0  0  0  0
 17 18  1  0  0  0  0
 18 19  2  0  0  0  0
 19 20  1  0  0  0  0
 19 46  1  0  0  0  0
 20 21  2  0  0  0  0
 20 47  1  0  0  0  0
 21 22  1  0  0  0  0
 21 23  1  0  0  0  0
 23 28  2  0  0  0  0
 23 24  1  0  0  0  0
 24 25  2  0  0  0  0
 24 48  1  0  0  0  0
 25 26  1  0  0  0  0
 25 49  1  0  0  0  0
 26 27  2  0  0  0  0
 26 50  1  0  0  0  0
 27 28  1  0  0  0  0
 28 51  1  0  0  0  0
M  END
$$$$
ZINC03832265
  -OEChem-08230709403D

 48 51  0     0  0  0  0  0  0999 V2000
   10.3605   -2.6103   -0.1700 C   0  0  0  0  0  0  0  0  0  0  0  0
    9.0421   -1.8805   -0.1646 C   0  0  0  0  0  0  0  0  0  0  0  0
    7.9238   -2.4744   -0.7225 C   0  0  0  0  0  0  0  0  0  0  0  0
    6.7139   -1.8117   -0.7209 C   0  0  0  0  0  0  0  0  0  0  0  0
    6.6193   -0.5392   -0.1549 C   0  0  0  0  0  0  0  0  0  0  0  0
    7.7525    0.0564    0.4015 C   0  0  0  0  0  0  0  0  0  0  0  0
    8.9551   -0.6196    0.3985 C   0  0  0  0  0  0  0  0  0  0  0  0
    5.3262    0.1769   -0.1501 C   0  0  0  0  0  0  0  0  0  0  0  0
    4.3421   -0.3422   -0.6399 O   0  0  0  0  0  0  0  0  0  0  0  0
    5.2382    1.4053    0.3973 N   0  0  0  0  0  0  0  0  0  0  0  0
    4.0373    2.1183    0.3258 C   0  0  0  0  0  0  0  0  0  0  0  0
    4.0564    3.5000    0.1786 C   0  0  0  0  0  0  0  0  0  0  0  0
    2.8706    4.2050    0.1075 C   0  0  0  0  0  0  0  0  0  0  0  0
    1.6620    3.5388    0.1771 C   0  0  0  0  0  0  0  0  0  0  0  0
    1.6359    2.1581    0.3296 C   0  0  0  0  0  0  0  0  0  0  0  0
    2.8256    1.4469    0.4013 C   0  0  0  0  0  0  0  0  0  0  0  0
    0.4127    1.4853    0.4048 N   0  0  0  0  0  0  0  0  0  0  0  0
   -0.6646    2.0761    1.0450 C   0  0  0  0  0  0  0  0  0  0  0  0
   -0.5389    3.3083    1.5166 N   0  0  0  0  0  0  0  0  0  0  0  0
   -1.5446    3.9072    2.1341 C   0  0  0  0  0  0  0  0  0  0  0  0
   -2.7431    3.2325    2.2871 C   0  0  0  0  0  0  0  0  0  0  0  0
   -2.8459    1.9348    1.7797 C   0  0  0  0  0  0  0  0  0  0  0  0
   -1.7945    1.3974    1.1651 N   0  0  0  0  0  0  0  0  0  0  0  0
   -4.1092    1.1702    1.9179 C   0  0  0  0  0  0  0  0  0  0  0  0
   -4.2128   -0.1284    1.4104 C   0  0  0  0  0  0  0  0  0  0  0  0
   -5.4132   -0.7997    1.5649 C   0  0  0  0  0  0  0  0  0  0  0  0
   -6.4622   -0.1702    2.2104 C   0  0  0  0  0  0  0  0  0  0  0  0
   -6.3347    1.0562    2.6789 N   0  0  0  0  0  0  0  0  0  0  0  0
   -5.2102    1.7322    2.5607 C   0  0  0  0  0  0  0  0  0  0  0  0
   10.9080   -2.3650   -1.0800 H   0  0  0  0  0  0  0  0  0  0  0  0
   10.9461   -2.3091    0.6987 H   0  0  0  0  0  0  0  0  0  0  0  0
   10.1812   -3.6848   -0.1324 H   0  0  0  0  0  0  0  0  0  0  0  0
    7.9985   -3.4587   -1.1605 H   0  0  0  0  0  0  0  0  0  0  0  0
    5.8417   -2.2765   -1.1564 H   0  0  0  0  0  0  0  0  0  0  0  0
    7.6871    1.0425    0.8371 H   0  0  0  0  0  0  0  0  0  0  0  0
    9.8316   -0.1619    0.8329 H   0  0  0  0  0  0  0  0  0  0  0  0
    6.0079    1.7950    0.8408 H   0  0  0  0  0  0  0  0  0  0  0  0
    4.9993    4.0232    0.1194 H   0  0  0  0  0  0  0  0  0  0  0  0
    2.8881    5.2788   -0.0069 H   0  0  0  0  0  0  0  0  0  0  0  0
    0.7366    4.0925    0.1171 H   0  0  0  0  0  0  0  0  0  0  0  0
    2.8081    0.3731    0.5154 H   0  0  0  0  0  0  0  0  0  0  0  0
    0.3171    0.6066    0.0053 H   0  0  0  0  0  0  0  0  0  0  0  0
   -1.4311    4.9115    2.5148 H   0  0  0  0  0  0  0  0  0  0  0  0
   -3.5794    3.6981    2.7874 H   0  0  0  0  0  0  0  0  0  0  0  0
   -3.3774   -0.5957    0.9101 H   0  0  0  0  0  0  0  0  0  0  0  0
   -5.5296   -1.8043    1.1859 H   0  0  0  0  0  0  0  0  0  0  0  0
   -7.4002   -0.6912    2.3331 H   0  0  0  0  0  0  0  0  0  0  0  0
   -5.1428    2.7329    2.9615 H   0  0  0  0  0  0  0  0  0  0  0  0
  1  2  1  0  0  0  0
  1 30  1  0  0  0  0
  1 31  1  0  0  0  0
  1 32  1  0  0  0  0
  2  7  2  0  0  0  0
  2  3  1  0  0  0  0
  3  4  2  0  0  0  0
  3 33  1  0  0  0  0
  4  5  1  0  0  0  0
  4 34  1  0  0  0  0
  5  6  2  0  0  0  0
  5  8  1  0  0  0  0
  6  7  1  0  0  0  0
  6 35  1  0  0  0  0
  7 36  1  0  0  0  0
  8  9  2  0  0  0  0
  8 10  1  0  0  0  0
 10 11  1  0  0  0  0
 10 37  1  0  0  0  0
 11 16  2  0  0  0  0
 11 12  1  0  0  0  0
 12 13  2  0  0  0  0
 12 38  1  0  0  0  0
 13 14  1  0  0  0  0
 13 39  1  0  0  0  0
 14 15  2  0  0  0  0
 14 40  1  0  0  0  0
 15 16  1  0  0  0  0
 15 17  1  0  0  0  0
 16 41  1  0  0  0  0
 17 18  1  0  0  0  0
 17 42  1  0  0  0  0
 18 23  2  0  0  0  0
 18 19  1  0  0  0  0
 19 20  2  0  0  0  0
 20 21  1  0  0  0  0
 20 43  1  0  0  0  0
 21 22  2  0  0  0  0
 21 44  1  0  0  0  0
 22 23  1  0  0  0  0
 22 24  1  0  0  0  0
 24 29  2  0  0  0  0
 24 25  1  0  0  0  0
 25 26  2  0  0  0  0
 25 45  1  0  0  0  0
 26 27  1  0  0  0  0
 26 46  1  0  0  0  0
 27 28  2  0  0  0  0
 27 47  1  0  0  0  0
 28 29  1  0  0  0  0
 29 48  1  0  0  0  0
M  END
$$$$
ZINC03832266
  -OEChem-08230709403D

 38 41  0     0  0  0  0  0  0999 V2000
   -2.3984    1.1218   -0.1016 C   0  0  0  0  0  0  0  0  0  0  0  0
   -1.1730    1.8971   -0.3103 N   0  0  0  0  0  0  0  0  0  0  0  0
   -1.2286    3.2683   -0.3109 C   0  0  0  0  0  0  0  0  0  0  0  0
   -0.0582    4.0300   -0.5159 C   0  0  0  0  0  0  0  0  0  0  0  0
    1.1843    3.3849   -0.7174 C   0  0  0  0  0  0  0  0  0  0  0  0
    1.2307    2.0175   -0.7101 C   0  0  0  0  0  0  0  0  0  0  0  0
   -0.0024    1.2570   -0.4946 C   0  0  0  0  0  0  0  0  0  0  0  0
    0.0302    0.0393   -0.4871 O   0  0  0  0  0  0  0  0  0  0  0  0
    2.5177    1.3118   -0.9190 C   0  0  0  0  0  0  0  0  0  0  0  0
    3.1899    1.4016   -2.1345 C   0  0  0  0  0  0  0  0  0  0  0  0
    4.3636    0.7474   -2.2851 C   0  0  0  0  0  0  0  0  0  0  0  0
    4.5628   -0.0434   -0.6976 S   0  0  0  0  0  0  0  0  0  0  0  0
    3.0689    0.5529    0.0762 C   0  0  0  0  0  0  0  0  0  0  0  0
   -0.1592    5.4288   -0.5149 C   0  0  0  0  0  0  0  0  0  0  0  0
   -1.3447    5.9766   -0.3222 N   0  0  0  0  0  0  0  0  0  0  0  0
   -2.4254    5.2281   -0.1324 C   0  0  0  0  0  0  0  0  0  0  0  0
   -2.3797    3.9048   -0.1254 N   0  0  0  0  0  0  0  0  0  0  0  0
   -3.6423    5.8534    0.0647 N   0  0  0  0  0  0  0  0  0  0  0  0
   -3.7027    7.2456    0.1773 C   0  0  0  0  0  0  0  0  0  0  0  0
   -2.6634    7.9407    0.7822 C   0  0  0  0  0  0  0  0  0  0  0  0
   -2.7236    9.3165    0.8867 C   0  0  0  0  0  0  0  0  0  0  0  0
   -3.8220   10.0010    0.3997 C   0  0  0  0  0  0  0  0  0  0  0  0
   -4.8613    9.3114   -0.1975 C   0  0  0  0  0  0  0  0  0  0  0  0
   -4.8049    7.9362   -0.3104 C   0  0  0  0  0  0  0  0  0  0  0  0
   -2.1640    0.0576   -0.1283 H   0  0  0  0  0  0  0  0  0  0  0  0
   -2.8279    1.3750    0.8676 H   0  0  0  0  0  0  0  0  0  0  0  0
   -3.1150    1.3559   -0.8889 H   0  0  0  0  0  0  0  0  0  0  0  0
    2.0830    3.9630   -0.8744 H   0  0  0  0  0  0  0  0  0  0  0  0
    2.7821    1.9886   -2.9441 H   0  0  0  0  0  0  0  0  0  0  0  0
    5.0128    0.7096   -3.1474 H   0  0  0  0  0  0  0  0  0  0  0  0
    2.6968    0.3635    1.0723 H   0  0  0  0  0  0  0  0  0  0  0  0
    0.7144    6.0449   -0.6688 H   0  0  0  0  0  0  0  0  0  0  0  0
   -4.4544    5.3263    0.1249 H   0  0  0  0  0  0  0  0  0  0  0  0
   -1.8072    7.4063    1.1667 H   0  0  0  0  0  0  0  0  0  0  0  0
   -1.9139    9.8580    1.3532 H   0  0  0  0  0  0  0  0  0  0  0  0
   -3.8685   11.0765    0.4864 H   0  0  0  0  0  0  0  0  0  0  0  0
   -5.7180    9.8490   -0.5765 H   0  0  0  0  0  0  0  0  0  0  0  0
   -5.6169    7.3982   -0.7769 H   0  0  0  0  0  0  0  0  0  0  0  0
  1  2  1  0  0  0  0
  1 25  1  0  0  0  0
  1 26  1  0  0  0  0
  1 27  1  0  0  0  0
  2  7  1  0  0  0  0
  2  3  1  0  0  0  0
  3 17  2  0  0  0  0
  3  4  1  0  0  0  0
  4  5  1  0  0  0  0
  4 14  2  0  0  0  0
  5  6  2  0  0  0  0
  5 28  1  0  0  0  0
  6  7  1  0  0  0  0
  6  9  1  0  0  0  0
  7  8  2  0  0  0  0
  9 13  2  0  0  0  0
  9 10  1  0  0  0  0
 10 11  2  0  0  0  0
 10 29  1  0  0  0  0
 11 12  1  0  0  0  0
 11 30  1  0  0  0  0
 12 13  1  0  0  0  0
 13 31  1  0  0  0  0
 14 15  1  0  0  0  0
 14 32  1  0  0  0  0
 15 16  2  0  0  0  0
 16 17  1  0  0  0  0
 16 18  1  0  0  0  0
 18 19  1  0  0  0  0
 18 33  1  0  0  0  0
 19 24  2  0  0  0  0
 19 20  1  0  0  0  0
 20 21  2  0  0  0  0
 20 34  1  0  0  0  0
 21 22  1  0  0  0  0
 21 35  1  0  0  0  0
 22 23  2  0  0  0  0
 22 36  1  0  0  0  0
 23 24  1  0  0  0  0
 23 37  1  0  0  0  0
 24 38  1  0  0  0  0
M  END
$$$$
ZINC03832267
  -OEChem-08230709403D

 35 37  0     0  0  0  0  0  0999 V2000
    1.2839   -0.6354   -0.0136 C   0  0  0  0  0  0  0  0  0  0  0  0
    0.0021   -0.0041    0.0020 O   0  0  0  0  0  0  0  0  0  0  0  0
   -0.0163    1.3534    0.0095 C   0  0  0  0  0  0  0  0  0  0  0  0
    1.1691    2.0564    0.0019 C   0  0  0  0  0  0  0  0  0  0  0  0
    1.1512    3.4545    0.0096 C   0  0  0  0  0  0  0  0  0  0  0  0
   -0.0799    4.1387    0.0251 C   0  0  0  0  0  0  0  0  0  0  0  0
   -1.2677    3.4335    0.0333 C   0  0  0  0  0  0  0  0  0  0  0  0
   -1.2454    2.0378    0.0190 C   0  0  0  0  0  0  0  0  0  0  0  0
   -2.5084    1.2818    0.0209 C   0  0  0  0  0  0  0  0  0  0  0  0
   -2.4893    0.0666    0.0142 O   0  0  0  0  0  0  0  0  0  0  0  0
   -3.6861    1.9372    0.0301 O   0  0  0  0  0  0  0  0  0  0  0  0
   -4.8913    1.1273    0.0314 C   0  0  0  0  0  0  0  0  0  0  0  0
    0.2354    5.4884    0.0293 N   0  0  0  0  0  0  0  0  0  0  0  0
    1.5925    5.5844    0.0169 C   0  0  0  0  0  0  0  0  0  0  0  0
    2.1265    4.3967    0.0054 N   0  0  0  0  0  0  0  0  0  0  0  0
   -0.6735    6.5545    0.0437 C   0  0  0  0  0  0  0  0  0  0  0  0
   -1.7184    6.5903   -0.8700 C   0  0  0  0  0  0  0  0  0  0  0  0
   -2.6166    7.6393   -0.8489 C   0  0  0  0  0  0  0  0  0  0  0  0
   -2.4687    8.6597    0.0726 C   0  0  0  0  0  0  0  0  0  0  0  0
   -1.4256    8.6299    0.9799 C   0  0  0  0  0  0  0  0  0  0  0  0
   -0.5279    7.5803    0.9681 C   0  0  0  0  0  0  0  0  0  0  0  0
    1.8284   -0.3302   -0.9072 H   0  0  0  0  0  0  0  0  0  0  0  0
    1.8454   -0.3398    0.8726 H   0  0  0  0  0  0  0  0  0  0  0  0
    1.1558   -1.7179   -0.0182 H   0  0  0  0  0  0  0  0  0  0  0  0
    2.1109    1.5279   -0.0103 H   0  0  0  0  0  0  0  0  0  0  0  0
   -2.2104    3.9602    0.0447 H   0  0  0  0  0  0  0  0  0  0  0  0
   -4.9104    0.5030   -0.8619 H   0  0  0  0  0  0  0  0  0  0  0  0
   -4.9020    0.4933    0.9180 H   0  0  0  0  0  0  0  0  0  0  0  0
   -5.7660    1.7775    0.0391 H   0  0  0  0  0  0  0  0  0  0  0  0
    2.1467    6.5114    0.0162 H   0  0  0  0  0  0  0  0  0  0  0  0
   -1.8314    5.7963   -1.5934 H   0  0  0  0  0  0  0  0  0  0  0  0
   -3.4325    7.6651   -1.5561 H   0  0  0  0  0  0  0  0  0  0  0  0
   -3.1695    9.4813    0.0839 H   0  0  0  0  0  0  0  0  0  0  0  0
   -1.3129    9.4281    1.6986 H   0  0  0  0  0  0  0  0  0  0  0  0
    0.2862    7.5573    1.6774 H   0  0  0  0  0  0  0  0  0  0  0  0
  1  2  1  0  0  0  0
  1 22  1  0  0  0  0
  1 23  1  0  0  0  0
  1 24  1  0  0  0  0
  2  3  1  0  0  0  0
  3  8  2  0  0  0  0
  3  4  1  0  0  0  0
  4  5  2  0  0  0  0
  4 25  1  0  0  0  0
  5 15  1  0  0  0  0
  5  6  1  0  0  0  0
  6  7  2  0  0  0  0
  6 13  1  0  0  0  0
  7  8  1  0  0  0  0
  7 26  1  0  0  0  0
  8  9  1  0  0  0  0
  9 10  2  0  0  0  0
  9 11  1  0  0  0  0
 11 12  1  0  0  0  0
 12 27  1  0  0  0  0
 12 28  1  0  0  0  0
 12 29  1  0  0  0  0
 13 14  1  0  0  0  0
 13 16  1  0  0  0  0
 14 15  2  0  0  0  0
 14 30  1  0  0  0  0
 16 21  2  0  0  0  0
 16 17  1  0  0  0  0
 17 18  2  0  0  0  0
 17 31  1  0  0  0  0
 18 19  1  0  0  0  0
 18 32  1  0  0  0  0
 19 20  2  0  0  0  0
 19 33  1  0  0  0  0
 20 21  1  0  0  0  0
 20 34  1  0  0  0  0
 21 35  1  0  0  0  0
M  END
$$$$
ZINC03832268
  -OEChem-08230709403D

 38 41  0     0  0  0  0  0  0999 V2000
    2.9152    7.3748   -2.2046 C   0  0  0  0  0  0  0  0  0  0  0  0
    2.3661    6.8284   -0.9612 N   0  0  0  0  0  0  0  0  0  0  0  0
    2.1589    7.6598    0.1107 C   0  0  0  0  0  0  0  0  0  0  0  0
    1.6308    7.1542    1.3184 C   0  0  0  0  0  0  0  0  0  0  0  0
    1.3091    5.7826    1.4357 C   0  0  0  0  0  0  0  0  0  0  0  0
    1.5207    4.9530    0.3521 C   0  0  0  0  0  0  0  0  0  0  0  0
    2.0767    5.5155   -0.8827 C   0  0  0  0  0  0  0  0  0  0  0  0
    2.2730    4.7930   -1.8434 O   0  0  0  0  0  0  0  0  0  0  0  0
    1.1966    3.5154    0.4378 C   0  0  0  0  0  0  0  0  0  0  0  0
   -0.0242    2.9134    0.5978 C   0  0  0  0  0  0  0  0  0  0  0  0
   -0.0822    1.5376    0.6447 C   0  0  0  0  0  0  0  0  0  0  0  0
    1.0676    0.8230    0.5424 C   0  0  0  0  0  0  0  0  0  0  0  0
    2.2928    2.1084    0.3592 S   0  0  0  0  0  0  0  0  0  0  0  0
    1.4359    8.0399    2.3888 C   0  0  0  0  0  0  0  0  0  0  0  0
    1.7541    9.3103    2.2238 N   0  0  0  0  0  0  0  0  0  0  0  0
    2.2490    9.7510    1.0726 C   0  0  0  0  0  0  0  0  0  0  0  0
    2.4506    8.9537    0.0349 N   0  0  0  0  0  0  0  0  0  0  0  0
    2.5657   11.0912    0.9538 N   0  0  0  0  0  0  0  0  0  0  0  0
    2.2572   11.9770    1.9904 C   0  0  0  0  0  0  0  0  0  0  0  0
    1.1117   11.7849    2.7523 C   0  0  0  0  0  0  0  0  0  0  0  0
    0.8126   12.6588    3.7790 C   0  0  0  0  0  0  0  0  0  0  0  0
    1.6463   13.7304    4.0418 C   0  0  0  0  0  0  0  0  0  0  0  0
    2.7844   13.9278    3.2816 C   0  0  0  0  0  0  0  0  0  0  0  0
    3.0924   13.0544    2.2571 C   0  0  0  0  0  0  0  0  0  0  0  0
    4.0033    7.3157   -2.1781 H   0  0  0  0  0  0  0  0  0  0  0  0
    2.5406    6.7992   -3.0510 H   0  0  0  0  0  0  0  0  0  0  0  0
    2.6103    8.4160   -2.3098 H   0  0  0  0  0  0  0  0  0  0  0  0
    0.9045    5.3903    2.3570 H   0  0  0  0  0  0  0  0  0  0  0  0
   -0.9235    3.5056    0.6814 H   0  0  0  0  0  0  0  0  0  0  0  0
   -1.0301    1.0340    0.7644 H   0  0  0  0  0  0  0  0  0  0  0  0
    1.2052   -0.2480    0.5620 H   0  0  0  0  0  0  0  0  0  0  0  0
    1.0343    7.6896    3.3282 H   0  0  0  0  0  0  0  0  0  0  0  0
    3.0020   11.4171    0.1511 H   0  0  0  0  0  0  0  0  0  0  0  0
    0.4579   10.9508    2.5446 H   0  0  0  0  0  0  0  0  0  0  0  0
   -0.0757   12.5077    4.3744 H   0  0  0  0  0  0  0  0  0  0  0  0
    1.4077   14.4149    4.8424 H   0  0  0  0  0  0  0  0  0  0  0  0
    3.4334   14.7656    3.4894 H   0  0  0  0  0  0  0  0  0  0  0  0
    3.9814   13.2090    1.6637 H   0  0  0  0  0  0  0  0  0  0  0  0
  1  2  1  0  0  0  0
  1 25  1  0  0  0  0
  1 26  1  0  0  0  0
  1 27  1  0  0  0  0
  2  7  1  0  0  0  0
  2  3  1  0  0  0  0
  3 17  2  0  0  0  0
  3  4  1  0  0  0  0
  4  5  1  0  0  0  0
  4 14  2  0  0  0  0
  5  6  2  0  0  0  0
  5 28  1  0  0  0  0
  6  7  1  0  0  0  0
  6  9  1  0  0  0  0
  7  8  2  0  0  0  0
  9 13  1  0  0  0  0
  9 10  2  0  0  0  0
 10 11  1  0  0  0  0
 10 29  1  0  0  0  0
 11 12  2  0  0  0  0
 11 30  1  0  0  0  0
 12 13  1  0  0  0  0
 12 31  1  0  0  0  0
 14 15  1  0  0  0  0
 14 32  1  0  0  0  0
 15 16  2  0  0  0  0
 16 17  1  0  0  0  0
 16 18  1  0  0  0  0
 18 19  1  0  0  0  0
 18 33  1  0  0  0  0
 19 24  2  0  0  0  0
 19 20  1  0  0  0  0
 20 21  2  0  0  0  0
 20 34  1  0  0  0  0
 21 22  1  0  0  0  0
 21 35  1  0  0  0  0
 22 23  2  0  0  0  0
 22 36  1  0  0  0  0
 23 24  1  0  0  0  0
 23 37  1  0  0  0  0
 24 38  1  0  0  0  0
M  END
$$$$
ZINC03834019
  -OEChem-08230709403D

 39 41  0     0  0  0  0  0  0999 V2000
    5.9795    3.3041   -0.0387 C   0  0  0  0  0  0  0  0  0  0  0  0
    5.9818    1.8751   -0.0464 O   0  0  0  0  0  0  0  0  0  0  0  0
    4.7716    1.2560   -0.0377 C   0  0  0  0  0  0  0  0  0  0  0  0
    3.6306    2.0038   -0.0223 C   0  0  0  0  0  0  0  0  0  0  0  0
    2.3792    1.3634   -0.0134 C   0  0  0  0  0  0  0  0  0  0  0  0
    1.1858    2.1034    0.0020 C   0  0  0  0  0  0  0  0  0  0  0  0
   -0.0170    1.4029    0.0098 C   0  0  0  0  0  0  0  0  0  0  0  0
    0.0021   -0.0041    0.0020 C   0  0  0  0  0  0  0  0  0  0  0  0
    1.1265   -0.6724   -0.0123 N   0  0  0  0  0  0  0  0  0  0  0  0
    2.3135   -0.0539   -0.0203 C   0  0  0  0  0  0  0  0  0  0  0  0
    3.5071   -0.7938   -0.0362 C   0  0  0  0  0  0  0  0  0  0  0  0
    4.7085   -0.1456   -0.0442 C   0  0  0  0  0  0  0  0  0  0  0  0
    5.8592   -0.8679   -0.0591 O   0  0  0  0  0  0  0  0  0  0  0  0
    5.7318   -2.2912   -0.0650 C   0  0  0  0  0  0  0  0  0  0  0  0
   -1.2991    2.1285    0.0198 C   0  0  0  0  0  0  0  0  0  0  0  0
   -2.4563    1.4469    0.0216 C   0  0  0  0  0  0  0  0  0  0  0  0
   -3.7389    2.1727    0.0316 C   0  0  0  0  0  0  0  0  0  0  0  0
   -3.7549    3.5700    0.0450 C   0  0  0  0  0  0  0  0  0  0  0  0
   -4.9590    4.2424    0.0490 C   0  0  0  0  0  0  0  0  0  0  0  0
   -6.1494    3.5368    0.0508 C   0  0  0  0  0  0  0  0  0  0  0  0
   -6.1414    2.1530    0.0428 C   0  0  0  0  0  0  0  0  0  0  0  0
   -4.9451    1.4670    0.0335 C   0  0  0  0  0  0  0  0  0  0  0  0
    5.4563    3.6714   -0.9216 H   0  0  0  0  0  0  0  0  0  0  0  0
    5.4740    3.6618    0.8583 H   0  0  0  0  0  0  0  0  0  0  0  0
    7.0066    3.6691   -0.0470 H   0  0  0  0  0  0  0  0  0  0  0  0
    3.6885    3.0822   -0.0168 H   0  0  0  0  0  0  0  0  0  0  0  0
    1.2008    3.1832    0.0073 H   0  0  0  0  0  0  0  0  0  0  0  0
   -0.9329   -0.5445    0.0084 H   0  0  0  0  0  0  0  0  0  0  0  0
    3.4745   -1.8733   -0.0413 H   0  0  0  0  0  0  0  0  0  0  0  0
    6.7229   -2.7447   -0.0770 H   0  0  0  0  0  0  0  0  0  0  0  0
    5.1963   -2.6118    0.8287 H   0  0  0  0  0  0  0  0  0  0  0  0
    5.1789   -2.6028   -0.9512 H   0  0  0  0  0  0  0  0  0  0  0  0
   -1.3084    3.2084    0.0257 H   0  0  0  0  0  0  0  0  0  0  0  0
   -2.4470    0.3670    0.0156 H   0  0  0  0  0  0  0  0  0  0  0  0
   -2.8266    4.1220    0.0485 H   0  0  0  0  0  0  0  0  0  0  0  0
   -4.9730    5.3223    0.0556 H   0  0  0  0  0  0  0  0  0  0  0  0
   -7.0893    4.0687    0.0581 H   0  0  0  0  0  0  0  0  0  0  0  0
   -7.0744    1.6090    0.0443 H   0  0  0  0  0  0  0  0  0  0  0  0
   -4.9404    0.3870    0.0272 H   0  0  0  0  0  0  0  0  0  0  0  0
  1  2  1  0  0  0  0
  1 23  1  0  0  0  0
  1 24  1  0  0  0  0
  1 25  1  0  0  0  0
  2  3  1  0  0  0  0
  3 12  2  0  0  0  0
  3  4  1  0  0  0  0
  4  5  2  0  0  0  0
  4 26  1  0  0  0  0
  5 10  1  0  0  0  0
  5  6  1  0  0  0  0
  6  7  2  0  0  0  0
  6 27  1  0  0  0  0
  7  8  1  0  0  0  0
  7 15  1  0  0  0  0
  8  9  2  0  0  0  0
  8 28  1  0  0  0  0
  9 10  1  0  0  0  0
 10 11  2  0  0  0  0
 11 12  1  0  0  0  0
 11 29  1  0  0  0  0
 12 13  1  0  0  0  0
 13 14  1  0  0  0  0
 14 30  1  0  0  0  0
 14 31  1  0  0  0  0
 14 32  1  0  0  0  0
 15 16  2  0  0  0  0
 15 33  1  0  0  0  0
 16 17  1  0  0  0  0
 16 34  1  0  0  0  0
 17 22  2  0  0  0  0
 17 18  1  0  0  0  0
 18 19  2  0  0  0  0
 18 35  1  0  0  0  0
 19 20  1  0  0  0  0
 19 36  1  0  0  0  0
 20 21  2  0  0  0  0
 20 37  1  0  0  0  0
 21 22  1  0  0  0  0
 21 38  1  0  0  0  0
 22 39  1  0  0  0  0
M  END
$$$$
ZINC03834020
  -OEChem-08230709403D

 50 53  0     0  0  0  0  0  0999 V2000
   -0.1786    2.2930    0.0723 C   0  0  0  0  0  0  0  0  0  0  0  0
   -0.8085    1.8462    1.3664 C   0  0  0  0  0  0  0  0  0  0  0  0
   -2.1654    1.6057    1.5893 C   0  0  0  0  0  0  0  0  0  0  0  0
   -2.3151    1.2186    2.8806 C   0  0  0  0  0  0  0  0  0  0  0  0
   -1.0998    1.2158    3.4840 N   0  0  0  0  0  0  0  0  0  0  0  0
   -0.9278    0.9810    4.4093 H   0  0  0  0  0  0  0  0  0  0  0  0
   -0.1505    1.6022    2.5623 C   0  0  0  0  0  0  0  0  0  0  0  0
    1.2350    1.7257    2.7929 C   0  0  0  0  0  0  0  0  0  0  0  0
    1.6959    2.1355    4.0300 C   0  0  0  0  0  0  0  0  0  0  0  0
    3.0978    2.1726    4.5003 C   0  0  0  0  0  0  0  0  0  0  0  0
    4.3122    1.8484    3.9001 C   0  0  0  0  0  0  0  0  0  0  0  0
    5.4866    1.9976    4.6035 C   0  0  0  0  0  0  0  0  0  0  0  0
    5.4588    2.4791    5.9139 C   0  0  0  0  0  0  0  0  0  0  0  0
    4.2489    2.8100    6.5162 C   0  0  0  0  0  0  0  0  0  0  0  0
    3.0605    2.6627    5.8142 C   0  0  0  0  0  0  0  0  0  0  0  0
    1.7403    2.9129    6.1700 N   0  0  0  0  0  0  0  0  0  0  0  0
    0.8988    2.6221    5.1636 C   0  0  0  0  0  0  0  0  0  0  0  0
   -0.3133    2.7408    5.1875 O   0  0  0  0  0  0  0  0  0  0  0  0
    6.7258    2.6383    6.6681 C   0  0  0  0  0  0  0  0  0  0  0  0
    6.7060    3.1233    7.9747 C   0  0  0  0  0  0  0  0  0  0  0  0
    7.8876    3.2639    8.6736 C   0  0  0  0  0  0  0  0  0  0  0  0
    9.0911    2.9353    8.0760 C   0  0  0  0  0  0  0  0  0  0  0  0
    9.1174    2.4588    6.7776 C   0  0  0  0  0  0  0  0  0  0  0  0
    7.9415    2.3087    6.0710 C   0  0  0  0  0  0  0  0  0  0  0  0
   -3.6209    0.8568    3.5403 C   0  0  0  0  0  0  0  0  0  0  0  0
   -3.2692    1.7479    0.5731 C   0  0  0  0  0  0  0  0  0  0  0  0
   -3.4624    0.4186   -0.1594 C   0  0  0  0  0  0  0  0  0  0  0  0
   -4.5662    0.5609   -1.1755 C   0  0  0  0  0  0  0  0  0  0  0  0
   -5.1395    1.6170   -1.3010 O   0  0  0  0  0  0  0  0  0  0  0  0
    0.1065    1.4192   -0.5137 H   0  0  0  0  0  0  0  0  0  0  0  0
    0.7069    2.8913    0.2867 H   0  0  0  0  0  0  0  0  0  0  0  0
   -0.8936    2.8915   -0.4922 H   0  0  0  0  0  0  0  0  0  0  0  0
    1.9361    1.5002    2.0030 H   0  0  0  0  0  0  0  0  0  0  0  0
    4.3323    1.4761    2.8865 H   0  0  0  0  0  0  0  0  0  0  0  0
    6.4289    1.7418    4.1419 H   0  0  0  0  0  0  0  0  0  0  0  0
    4.2344    3.1813    7.5303 H   0  0  0  0  0  0  0  0  0  0  0  0
    1.4621    3.2537    7.0345 H   0  0  0  0  0  0  0  0  0  0  0  0
    5.7674    3.3845    8.4407 H   0  0  0  0  0  0  0  0  0  0  0  0
    7.8731    3.6355    9.6876 H   0  0  0  0  0  0  0  0  0  0  0  0
   10.0138    3.0508    8.6253 H   0  0  0  0  0  0  0  0  0  0  0  0
   10.0599    2.2041    6.3159 H   0  0  0  0  0  0  0  0  0  0  0  0
    7.9631    1.9363    5.0575 H   0  0  0  0  0  0  0  0  0  0  0  0
   -4.0691    1.7510    3.9735 H   0  0  0  0  0  0  0  0  0  0  0  0
   -4.2980    0.4341    2.7981 H   0  0  0  0  0  0  0  0  0  0  0  0
   -3.4399    0.1237    4.3264 H   0  0  0  0  0  0  0  0  0  0  0  0
   -4.1952    2.0222    1.0785 H   0  0  0  0  0  0  0  0  0  0  0  0
   -3.0039    2.5235   -0.1453 H   0  0  0  0  0  0  0  0  0  0  0  0
   -2.5364    0.1444   -0.6648 H   0  0  0  0  0  0  0  0  0  0  0  0
   -3.7277   -0.3569    0.5591 H   0  0  0  0  0  0  0  0  0  0  0  0
   -4.9124   -0.4858   -1.9413 O   0  5  0  0  0  0  0  0  0  0  0  0
  1  2  1  0  0  0  0
  1 30  1  0  0  0  0
  1 31  1  0  0  0  0
  1 32  1  0  0  0  0
  2  7  2  0  0  0  0
  2  3  1  0  0  0  0
  3  4  2  0  0  0  0
  3 26  1  0  0  0  0
  4  5  1  0  0  0  0
  4 25  1  0  0  0  0
  5  6  1  0  0  0  0
  5  7  1  0  0  0  0
  7  8  1  0  0  0  0
  8  9  2  0  0  0  0
  8 33  1  0  0  0  0
  9 17  1  0  0  0  0
  9 10  1  0  0  0  0
 10 15  2  0  0  0  0
 10 11  1  0  0  0  0
 11 12  2  0  0  0  0
 11 34  1  0  0  0  0
 12 13  1  0  0  0  0
 12 35  1  0  0  0  0
 13 14  2  0  0  0  0
 13 19  1  0  0  0  0
 14 15  1  0  0  0  0
 14 36  1  0  0  0  0
 15 16  1  0  0  0  0
 16 17  1  0  0  0  0
 16 37  1  0  0  0  0
 17 18  2  0  0  0  0
 19 24  2  0  0  0  0
 19 20  1  0  0  0  0
 20 21  2  0  0  0  0
 20 38  1  0  0  0  0
 21 22  1  0  0  0  0
 21 39  1  0  0  0  0
 22 23  2  0  0  0  0
 22 40  1  0  0  0  0
 23 24  1  0  0  0  0
 23 41  1  0  0  0  0
 24 42  1  0  0  0  0
 25 43  1  0  0  0  0
 25 44  1  0  0  0  0
 25 45  1  0  0  0  0
 26 27  1  0  0  0  0
 26 46  1  0  0  0  0
 26 47  1  0  0  0  0
 27 28  1  0  0  0  0
 27 48  1  0  0  0  0
 27 49  1  0  0  0  0
 28 29  2  0  0  0  0
 28 50  1  0  0  0  0
M  CHG  1  50  -1
M  END
$$$$
ZINC03834021
  -OEChem-08230709403D

 24 26  0     0  0  0  0  0  0999 V2000
    2.5129    7.9271    0.0166 C   0  0  0  0  0  0  0  0  0  0  0  0
    3.5914    8.7573    0.0098 C   0  0  0  0  0  0  0  0  0  0  0  0
    4.8888    8.2437   -0.0047 C   0  0  0  0  0  0  0  0  0  0  0  0
    5.1122    6.8986   -0.0129 C   0  0  0  0  0  0  0  0  0  0  0  0
    4.0239    6.0103   -0.0063 C   0  0  0  0  0  0  0  0  0  0  0  0
    2.7068    6.5354    0.0089 C   0  0  0  0  0  0  0  0  0  0  0  0
    1.6166    5.6481    0.0092 C   0  0  0  0  0  0  0  0  0  0  0  0
    1.8848    4.2873    0.0058 C   0  0  0  0  0  0  0  0  0  0  0  0
    3.2172    3.8446   -0.0090 C   0  0  0  0  0  0  0  0  0  0  0  0
    4.2189    4.6870   -0.0145 N   0  0  0  0  0  0  0  0  0  0  0  0
    0.7717    3.3065    0.0117 C   0  0  0  0  0  0  0  0  0  0  0  0
    1.0283    1.9387    0.0027 C   0  0  0  0  0  0  0  0  0  0  0  0
   -0.0126    1.0758    0.0080 C   0  0  0  0  0  0  0  0  0  0  0  0
   -1.4170    2.1770    0.0194 S   0  0  0  0  0  0  0  0  0  0  0  0
   -0.5294    3.7257    0.0256 C   0  0  0  0  0  0  0  0  0  0  0  0
    5.9400    9.0923   -0.0111 F   0  0  0  0  0  0  0  0  0  0  0  0
    1.5133    8.3358    0.0275 H   0  0  0  0  0  0  0  0  0  0  0  0
    3.4413    9.8268    0.0162 H   0  0  0  0  0  0  0  0  0  0  0  0
    6.1226    6.5173   -0.0248 H   0  0  0  0  0  0  0  0  0  0  0  0
    0.6008    6.0149    0.0157 H   0  0  0  0  0  0  0  0  0  0  0  0
    3.4202    2.7839   -0.0164 H   0  0  0  0  0  0  0  0  0  0  0  0
    2.0441    1.5719   -0.0081 H   0  0  0  0  0  0  0  0  0  0  0  0
    0.0021   -0.0041    0.0020 H   0  0  0  0  0  0  0  0  0  0  0  0
   -0.9192    4.7328    0.0344 H   0  0  0  0  0  0  0  0  0  0  0  0
  1  6  2  0  0  0  0
  1  2  1  0  0  0  0
  1 17  1  0  0  0  0
  2  3  2  0  0  0  0
  2 18  1  0  0  0  0
  3  4  1  0  0  0  0
  3 16  1  0  0  0  0
  4  5  2  0  0  0  0
  4 19  1  0  0  0  0
  5 10  1  0  0  0  0
  5  6  1  0  0  0  0
  6  7  1  0  0  0  0
  7  8  2  0  0  0  0
  7 20  1  0  0  0  0
  8  9  1  0  0  0  0
  8 11  1  0  0  0  0
  9 10  2  0  0  0  0
  9 21  1  0  0  0  0
 11 15  2  0  0  0  0
 11 12  1  0  0  0  0
 12 13  2  0  0  0  0
 12 22  1  0  0  0  0
 13 14  1  0  0  0  0
 13 23  1  0  0  0  0
 14 15  1  0  0  0  0
 15 24  1  0  0  0  0
M  END
$$$$
ZINC03834022
  -OEChem-08230709403D

 32 34  0     0  0  0  0  0  0999 V2000
    5.8452    3.5205   -0.2689 C   0  0  0  0  0  0  0  0  0  0  0  0
    4.6113    4.2368   -0.1894 O   0  0  0  0  0  0  0  0  0  0  0  0
    3.4719    3.4980   -0.1249 C   0  0  0  0  0  0  0  0  0  0  0  0
    3.5487    2.1358   -0.1384 C   0  0  0  0  0  0  0  0  0  0  0  0
    2.3707    1.3721   -0.0717 C   0  0  0  0  0  0  0  0  0  0  0  0
    2.4143   -0.0320   -0.0830 C   0  0  0  0  0  0  0  0  0  0  0  0
    1.2101   -0.7228   -0.0138 C   0  0  0  0  0  0  0  0  0  0  0  0
    0.0043   -0.0044    0.0641 C   0  0  0  0  0  0  0  0  0  0  0  0
   -0.0134    1.3040    0.0728 N   0  0  0  0  0  0  0  0  0  0  0  0
    1.1130    2.0234    0.0085 C   0  0  0  0  0  0  0  0  0  0  0  0
    1.0693    3.4275    0.0206 C   0  0  0  0  0  0  0  0  0  0  0  0
    2.2290    4.1440   -0.0457 C   0  0  0  0  0  0  0  0  0  0  0  0
    2.1792    5.5019   -0.0345 O   0  0  0  0  0  0  0  0  0  0  0  0
    0.8854    6.1030    0.0475 C   0  0  0  0  0  0  0  0  0  0  0  0
    1.1975   -2.2004   -0.0217 C   0  0  0  0  0  0  0  0  0  0  0  0
    1.8659   -3.0649   -0.8480 C   0  0  0  0  0  0  0  0  0  0  0  0
    1.6970   -4.4205   -0.6638 C   0  0  0  0  0  0  0  0  0  0  0  0
    0.8769   -4.8562    0.3267 C   0  0  0  0  0  0  0  0  0  0  0  0
    0.3135   -3.3235    1.0482 S   0  0  0  0  0  0  0  0  0  0  0  0
    2.9057   -2.4650   -2.1021 Cl  0  0  0  0  0  0  0  0  0  0  0  0
    5.9557    2.8881    0.6119 H   0  0  0  0  0  0  0  0  0  0  0  0
    5.8478    2.8995   -1.1647 H   0  0  0  0  0  0  0  0  0  0  0  0
    6.6735    4.2277   -0.3147 H   0  0  0  0  0  0  0  0  0  0  0  0
    4.5097    1.6470   -0.2002 H   0  0  0  0  0  0  0  0  0  0  0  0
    3.3551   -0.5588   -0.1433 H   0  0  0  0  0  0  0  0  0  0  0  0
   -0.9292   -0.5449    0.1178 H   0  0  0  0  0  0  0  0  0  0  0  0
    0.1200    3.9389    0.0812 H   0  0  0  0  0  0  0  0  0  0  0  0
    0.9883    7.1882    0.0479 H   0  0  0  0  0  0  0  0  0  0  0  0
    0.2867    5.7951   -0.8097 H   0  0  0  0  0  0  0  0  0  0  0  0
    0.3943    5.7843    0.9670 H   0  0  0  0  0  0  0  0  0  0  0  0
    2.2106   -5.1270   -1.2989 H   0  0  0  0  0  0  0  0  0  0  0  0
    0.6322   -5.8695    0.6089 H   0  0  0  0  0  0  0  0  0  0  0  0
  1  2  1  0  0  0  0
  1 21  1  0  0  0  0
  1 22  1  0  0  0  0
  1 23  1  0  0  0  0
  2  3  1  0  0  0  0
  3 12  2  0  0  0  0
  3  4  1  0  0  0  0
  4  5  2  0  0  0  0
  4 24  1  0  0  0  0
  5 10  1  0  0  0  0
  5  6  1  0  0  0  0
  6  7  2  0  0  0  0
  6 25  1  0  0  0  0
  7  8  1  0  0  0  0
  7 15  1  0  0  0  0
  8  9  2  0  0  0  0
  8 26  1  0  0  0  0
  9 10  1  0  0  0  0
 10 11  2  0  0  0  0
 11 12  1  0  0  0  0
 11 27  1  0  0  0  0
 12 13  1  0  0  0  0
 13 14  1  0  0  0  0
 14 28  1  0  0  0  0
 14 29  1  0  0  0  0
 14 30  1  0  0  0  0
 15 19  1  0  0  0  0
 15 16  2  0  0  0  0
 16 17  1  0  0  0  0
 16 20  1  0  0  0  0
 17 18  2  0  0  0  0
 17 31  1  0  0  0  0
 18 19  1  0  0  0  0
 18 32  1  0  0  0  0
M  END
$$$$
ZINC03834023
  -OEChem-08230709403D

 24 26  0     0  0  0  0  0  0999 V2000
    2.3984    0.0436   -0.0205 C   0  0  0  0  0  0  0  0  0  0  0  0
    2.4156    1.4050   -0.0134 C   0  0  0  0  0  0  0  0  0  0  0  0
    1.2059    2.1199    0.0019 C   0  0  0  0  0  0  0  0  0  0  0  0
   -0.0170    1.4027    0.0098 C   0  0  0  0  0  0  0  0  0  0  0  0
   -1.2280    2.1152    0.0310 C   0  0  0  0  0  0  0  0  0  0  0  0
   -1.1680    3.5011    0.0328 C   0  0  0  0  0  0  0  0  0  0  0  0
    0.0826    4.1394    0.0242 C   0  0  0  0  0  0  0  0  0  0  0  0
    1.1996    3.4575    0.0095 N   0  0  0  0  0  0  0  0  0  0  0  0
   -2.4160    4.3029    0.0495 C   0  0  0  0  0  0  0  0  0  0  0  0
   -2.3683    5.6937    0.0569 C   0  0  0  0  0  0  0  0  0  0  0  0
   -3.5273    6.3899    0.0717 C   0  0  0  0  0  0  0  0  0  0  0  0
   -4.7498    5.0896    0.0758 S   0  0  0  0  0  0  0  0  0  0  0  0
   -3.6392    3.6925    0.0523 C   0  0  0  0  0  0  0  0  0  0  0  0
    0.0021   -0.0041    0.0020 C   0  0  0  0  0  0  0  0  0  0  0  0
    1.1975   -0.6610   -0.0129 C   0  0  0  0  0  0  0  0  0  0  0  0
   -1.1560   -0.6998    0.0097 F   0  0  0  0  0  0  0  0  0  0  0  0
    3.3322   -0.4990   -0.0327 H   0  0  0  0  0  0  0  0  0  0  0  0
    3.3570    1.9344   -0.0192 H   0  0  0  0  0  0  0  0  0  0  0  0
   -2.1768    1.5994    0.0416 H   0  0  0  0  0  0  0  0  0  0  0  0
    0.1237    5.2186    0.0295 H   0  0  0  0  0  0  0  0  0  0  0  0
   -1.4194    6.2094    0.0506 H   0  0  0  0  0  0  0  0  0  0  0  0
   -3.6755    7.4597    0.0789 H   0  0  0  0  0  0  0  0  0  0  0  0
   -3.8730    2.6381    0.0440 H   0  0  0  0  0  0  0  0  0  0  0  0
    1.2126   -1.7409   -0.0185 H   0  0  0  0  0  0  0  0  0  0  0  0
  1 15  2  0  0  0  0
  1  2  1  0  0  0  0
  1 17  1  0  0  0  0
  2  3  2  0  0  0  0
  2 18  1  0  0  0  0
  3  8  1  0  0  0  0
  3  4  1  0  0  0  0
  4  5  1  0  0  0  0
  4 14  2  0  0  0  0
  5  6  2  0  0  0  0
  5 19  1  0  0  0  0
  6  7  1  0  0  0  0
  6  9  1  0  0  0  0
  7  8  2  0  0  0  0
  7 20  1  0  0  0  0
  9 13  2  0  0  0  0
  9 10  1  0  0  0  0
 10 11  2  0  0  0  0
 10 21  1  0  0  0  0
 11 12  1  0  0  0  0
 11 22  1  0  0  0  0
 12 13  1  0  0  0  0
 13 23  1  0  0  0  0
 14 15  1  0  0  0  0
 14 16  1  0  0  0  0
 15 24  1  0  0  0  0
M  END
$$$$
ZINC03834024
  -OEChem-08230709403D

 35 37  0     0  0  0  0  0  0999 V2000
   -2.5766   -6.9158   -0.0100 C   0  0  0  0  0  0  0  0  0  0  0  0
   -3.8207   -6.2128    0.0060 O   0  0  0  0  0  0  0  0  0  0  0  0
   -3.7621   -4.8546    0.0126 C   0  0  0  0  0  0  0  0  0  0  0  0
   -2.5487   -4.2311    0.0044 C   0  0  0  0  0  0  0  0  0  0  0  0
   -2.4881   -2.8271    0.0117 C   0  0  0  0  0  0  0  0  0  0  0  0
   -1.2553   -2.1530   -0.0028 C   0  0  0  0  0  0  0  0  0  0  0  0
   -1.2710   -0.7657    0.0106 C   0  0  0  0  0  0  0  0  0  0  0  0
   -2.4999   -0.0880    0.0264 C   0  0  0  0  0  0  0  0  0  0  0  0
   -3.6385   -0.7339    0.0343 N   0  0  0  0  0  0  0  0  0  0  0  0
   -3.6880   -2.0708    0.0276 C   0  0  0  0  0  0  0  0  0  0  0  0
   -4.9211   -2.7439    0.0357 C   0  0  0  0  0  0  0  0  0  0  0  0
   -4.9502   -4.1084    0.0283 C   0  0  0  0  0  0  0  0  0  0  0  0
   -6.1462   -4.7531    0.0357 O   0  0  0  0  0  0  0  0  0  0  0  0
   -7.3213   -3.9401    0.0511 C   0  0  0  0  0  0  0  0  0  0  0  0
    0.0021   -0.0041    0.0020 C   0  0  0  0  0  0  0  0  0  0  0  0
   -0.0168    1.3897    0.0097 C   0  0  0  0  0  0  0  0  0  0  0  0
    1.1697    2.0943    0.0021 C   0  0  0  0  0  0  0  0  0  0  0  0
    2.3776    1.4208   -0.0135 C   0  0  0  0  0  0  0  0  0  0  0  0
    2.4036    0.0358   -0.0207 C   0  0  0  0  0  0  0  0  0  0  0  0
    1.2204   -0.6794   -0.0132 C   0  0  0  0  0  0  0  0  0  0  0  0
    3.5865   -0.6168   -0.0355 F   0  0  0  0  0  0  0  0  0  0  0  0
   -2.0163   -6.6425   -0.9041 H   0  0  0  0  0  0  0  0  0  0  0  0
   -1.9988   -6.6519    0.8758 H   0  0  0  0  0  0  0  0  0  0  0  0
   -2.7659   -7.9892   -0.0138 H   0  0  0  0  0  0  0  0  0  0  0  0
   -1.6392   -4.8135   -0.0073 H   0  0  0  0  0  0  0  0  0  0  0  0
   -0.3233   -2.6985   -0.0195 H   0  0  0  0  0  0  0  0  0  0  0  0
   -2.5063    0.9919    0.0319 H   0  0  0  0  0  0  0  0  0  0  0  0
   -5.8439   -2.1829    0.0474 H   0  0  0  0  0  0  0  0  0  0  0  0
   -7.3195   -3.3158    0.9447 H   0  0  0  0  0  0  0  0  0  0  0  0
   -7.3360   -3.3058   -0.8352 H   0  0  0  0  0  0  0  0  0  0  0  0
   -8.2048   -4.5785    0.0557 H   0  0  0  0  0  0  0  0  0  0  0  0
   -0.9590    1.9175    0.0170 H   0  0  0  0  0  0  0  0  0  0  0  0
    1.1550    3.1742    0.0081 H   0  0  0  0  0  0  0  0  0  0  0  0
    3.3036    1.9765   -0.0197 H   0  0  0  0  0  0  0  0  0  0  0  0
    1.2406   -1.7592   -0.0189 H   0  0  0  0  0  0  0  0  0  0  0  0
  1  2  1  0  0  0  0
  1 22  1  0  0  0  0
  1 23  1  0  0  0  0
  1 24  1  0  0  0  0
  2  3  1  0  0  0  0
  3 12  2  0  0  0  0
  3  4  1  0  0  0  0
  4  5  2  0  0  0  0
  4 25  1  0  0  0  0
  5 10  1  0  0  0  0
  5  6  1  0  0  0  0
  6  7  2  0  0  0  0
  6 26  1  0  0  0  0
  7  8  1  0  0  0  0
  7 15  1  0  0  0  0
  8  9  2  0  0  0  0
  8 27  1  0  0  0  0
  9 10  1  0  0  0  0
 10 11  2  0  0  0  0
 11 12  1  0  0  0  0
 11 28  1  0  0  0  0
 12 13  1  0  0  0  0
 13 14  1  0  0  0  0
 14 29  1  0  0  0  0
 14 30  1  0  0  0  0
 14 31  1  0  0  0  0
 15 20  2  0  0  0  0
 15 16  1  0  0  0  0
 16 17  2  0  0  0  0
 16 32  1  0  0  0  0
 17 18  1  0  0  0  0
 17 33  1  0  0  0  0
 18 19  2  0  0  0  0
 18 34  1  0  0  0  0
 19 20  1  0  0  0  0
 19 21  1  0  0  0  0
 20 35  1  0  0  0  0
M  END
$$$$
ZINC03834025
  -OEChem-08230709403D

 36 38  0     0  0  0  0  0  0999 V2000
    5.9311   -2.0502   -0.0659 C   0  0  0  0  0  0  0  0  0  0  0  0
    4.7159   -2.8020   -0.0586 O   0  0  0  0  0  0  0  0  0  0  0  0
    3.5539   -2.0966   -0.0438 C   0  0  0  0  0  0  0  0  0  0  0  0
    3.5919   -0.7329   -0.0364 C   0  0  0  0  0  0  0  0  0  0  0  0
    2.3906   -0.0037   -0.0207 C   0  0  0  0  0  0  0  0  0  0  0  0
    2.3937    1.4014   -0.0127 C   0  0  0  0  0  0  0  0  0  0  0  0
    1.1701    2.0557    0.0019 C   0  0  0  0  0  0  0  0  0  0  0  0
   -0.0157    1.3049    0.0092 C   0  0  0  0  0  0  0  0  0  0  0  0
    0.0021   -0.0041    0.0020 N   0  0  0  0  0  0  0  0  0  0  0  0
    1.1499   -0.6912   -0.0126 C   0  0  0  0  0  0  0  0  0  0  0  0
    1.1459   -2.0960   -0.0207 C   0  0  0  0  0  0  0  0  0  0  0  0
    2.3277   -2.7785   -0.0360 C   0  0  0  0  0  0  0  0  0  0  0  0
    2.3166   -4.1373   -0.0441 O   0  0  0  0  0  0  0  0  0  0  0  0
    1.0382   -4.7757   -0.0360 C   0  0  0  0  0  0  0  0  0  0  0  0
    1.1158    3.5380    0.0103 C   0  0  0  0  0  0  0  0  0  0  0  0
    2.2957    4.2802    0.0088 C   0  0  0  0  0  0  0  0  0  0  0  0
    2.2419    5.6582    0.0113 C   0  0  0  0  0  0  0  0  0  0  0  0
    1.0142    6.3063    0.0260 C   0  0  0  0  0  0  0  0  0  0  0  0
   -0.1627    5.5698    0.0333 C   0  0  0  0  0  0  0  0  0  0  0  0
   -0.1154    4.1916    0.0255 C   0  0  0  0  0  0  0  0  0  0  0  0
    0.9644    7.6641    0.0336 O   0  0  0  0  0  0  0  0  0  0  0  0
    6.7807   -2.7329   -0.0776 H   0  0  0  0  0  0  0  0  0  0  0  0
    5.9614   -1.4173   -0.9528 H   0  0  0  0  0  0  0  0  0  0  0  0
    5.9782   -1.4268    0.8270 H   0  0  0  0  0  0  0  0  0  0  0  0
    4.5403   -0.2163   -0.0422 H   0  0  0  0  0  0  0  0  0  0  0  0
    3.3206    1.9556   -0.0182 H   0  0  0  0  0  0  0  0  0  0  0  0
   -0.9653    1.8192    0.0165 H   0  0  0  0  0  0  0  0  0  0  0  0
    0.2099   -2.6347   -0.0151 H   0  0  0  0  0  0  0  0  0  0  0  0
    0.4752   -4.4729   -0.9189 H   0  0  0  0  0  0  0  0  0  0  0  0
    1.1722   -5.8574   -0.0438 H   0  0  0  0  0  0  0  0  0  0  0  0
    0.4920   -4.4838    0.8610 H   0  0  0  0  0  0  0  0  0  0  0  0
    3.2511    3.7765    0.0019 H   0  0  0  0  0  0  0  0  0  0  0  0
    3.1557    6.2337    0.0056 H   0  0  0  0  0  0  0  0  0  0  0  0
   -1.1162    6.0768    0.0447 H   0  0  0  0  0  0  0  0  0  0  0  0
   -1.0312    3.6193    0.0316 H   0  0  0  0  0  0  0  0  0  0  0  0
    0.9584    8.0525    0.9192 H   0  0  0  0  0  0  0  0  0  0  0  0
  1  2  1  0  0  0  0
  1 22  1  0  0  0  0
  1 23  1  0  0  0  0
  1 24  1  0  0  0  0
  2  3  1  0  0  0  0
  3 12  2  0  0  0  0
  3  4  1  0  0  0  0
  4  5  2  0  0  0  0
  4 25  1  0  0  0  0
  5 10  1  0  0  0  0
  5  6  1  0  0  0  0
  6  7  2  0  0  0  0
  6 26  1  0  0  0  0
  7  8  1  0  0  0  0
  7 15  1  0  0  0  0
  8  9  2  0  0  0  0
  8 27  1  0  0  0  0
  9 10  1  0  0  0  0
 10 11  2  0  0  0  0
 11 12  1  0  0  0  0
 11 28  1  0  0  0  0
 12 13  1  0  0  0  0
 13 14  1  0  0  0  0
 14 29  1  0  0  0  0
 14 30  1  0  0  0  0
 14 31  1  0  0  0  0
 15 20  2  0  0  0  0
 15 16  1  0  0  0  0
 16 17  2  0  0  0  0
 16 32  1  0  0  0  0
 17 18  1  0  0  0  0
 17 33  1  0  0  0  0
 18 19  2  0  0  0  0
 18 21  1  0  0  0  0
 19 20  1  0  0  0  0
 19 34  1  0  0  0  0
 20 35  1  0  0  0  0
 21 36  1  0  0  0  0
M  END
$$$$
ZINC03834026
  -OEChem-08230709403D

 32 34  0     0  0  0  0  0  0999 V2000
    4.7748    4.9837   -0.0144 C   0  0  0  0  0  0  0  0  0  0  0  0
    3.5917    5.7850    0.0007 O   0  0  0  0  0  0  0  0  0  0  0  0
    2.4024    5.1287    0.0076 C   0  0  0  0  0  0  0  0  0  0  0  0
    2.3864    3.7516   -0.0005 C   0  0  0  0  0  0  0  0  0  0  0  0
    1.1598    3.0684    0.0070 C   0  0  0  0  0  0  0  0  0  0  0  0
   -0.0457    3.8148    0.0221 C   0  0  0  0  0  0  0  0  0  0  0  0
   -1.2721    3.1319    0.0297 C   0  0  0  0  0  0  0  0  0  0  0  0
   -1.2460    1.7442    0.0175 C   0  0  0  0  0  0  0  0  0  0  0  0
   -0.0126    1.0758    0.0080 C   0  0  0  0  0  0  0  0  0  0  0  0
    1.1213    1.7308    0.0006 N   0  0  0  0  0  0  0  0  0  0  0  0
   -2.5137    0.9731    0.0194 C   0  0  0  0  0  0  0  0  0  0  0  0
   -2.5001   -0.4184    0.0118 C   0  0  0  0  0  0  0  0  0  0  0  0
   -3.6760   -1.0860    0.0137 C   0  0  0  0  0  0  0  0  0  0  0  0
   -4.8661    0.2439    0.0266 S   0  0  0  0  0  0  0  0  0  0  0  0
   -3.7212    1.6133    0.0344 C   0  0  0  0  0  0  0  0  0  0  0  0
    0.0036    5.2242    0.0297 C   0  0  0  0  0  0  0  0  0  0  0  0
    1.2124    5.8595    0.0225 C   0  0  0  0  0  0  0  0  0  0  0  0
   -1.1460    5.9464    0.0436 O   0  0  0  0  0  0  0  0  0  0  0  0
   -1.0180    7.3696    0.0506 C   0  0  0  0  0  0  0  0  0  0  0  0
    4.7954    4.3495    0.8718 H   0  0  0  0  0  0  0  0  0  0  0  0
    4.7795    4.3596   -0.9080 H   0  0  0  0  0  0  0  0  0  0  0  0
    5.6519    5.6308   -0.0186 H   0  0  0  0  0  0  0  0  0  0  0  0
    3.3143    3.1990   -0.0116 H   0  0  0  0  0  0  0  0  0  0  0  0
   -2.2082    3.6703    0.0411 H   0  0  0  0  0  0  0  0  0  0  0  0
    0.0021   -0.0041    0.0020 H   0  0  0  0  0  0  0  0  0  0  0  0
   -1.5642   -0.9572    0.0047 H   0  0  0  0  0  0  0  0  0  0  0  0
   -3.8505   -2.1518    0.0088 H   0  0  0  0  0  0  0  0  0  0  0  0
   -3.9288    2.6731    0.0460 H   0  0  0  0  0  0  0  0  0  0  0  0
    1.2485    6.9388    0.0286 H   0  0  0  0  0  0  0  0  0  0  0  0
   -0.4660    7.6804    0.9376 H   0  0  0  0  0  0  0  0  0  0  0  0
   -0.4813    7.6905   -0.8422 H   0  0  0  0  0  0  0  0  0  0  0  0
   -2.0089    7.8235    0.0616 H   0  0  0  0  0  0  0  0  0  0  0  0
  1  2  1  0  0  0  0
  1 20  1  0  0  0  0
  1 21  1  0  0  0  0
  1 22  1  0  0  0  0
  2  3  1  0  0  0  0
  3 17  2  0  0  0  0
  3  4  1  0  0  0  0
  4  5  2  0  0  0  0
  4 23  1  0  0  0  0
  5 10  1  0  0  0  0
  5  6  1  0  0  0  0
  6  7  1  0  0  0  0
  6 16  2  0  0  0  0
  7  8  2  0  0  0  0
  7 24  1  0  0  0  0
  8  9  1  0  0  0  0
  8 11  1  0  0  0  0
  9 10  2  0  0  0  0
  9 25  1  0  0  0  0
 11 15  2  0  0  0  0
 11 12  1  0  0  0  0
 12 13  2  0  0  0  0
 12 26  1  0  0  0  0
 13 14  1  0  0  0  0
 13 27  1  0  0  0  0
 14 15  1  0  0  0  0
 15 28  1  0  0  0  0
 16 17  1  0  0  0  0
 16 18  1  0  0  0  0
 17 29  1  0  0  0  0
 18 19  1  0  0  0  0
 19 30  1  0  0  0  0
 19 31  1  0  0  0  0
 19 32  1  0  0  0  0
M  END
$$$$
ZINC03834028
  -OEChem-08230709403D

 35 37  0     0  0  0  0  0  0999 V2000
    0.0125    7.9040    0.0426 C   0  0  0  0  0  0  0  0  0  0  0  0
    1.2618    7.2104    0.0272 O   0  0  0  0  0  0  0  0  0  0  0  0
    1.2135    5.8519    0.0207 C   0  0  0  0  0  0  0  0  0  0  0  0
    0.0048    5.2192    0.0293 C   0  0  0  0  0  0  0  0  0  0  0  0
   -0.0451    3.8148    0.0231 C   0  0  0  0  0  0  0  0  0  0  0  0
   -1.2729    3.1314    0.0315 C   0  0  0  0  0  0  0  0  0  0  0  0
   -1.2466    1.7442    0.0175 C   0  0  0  0  0  0  0  0  0  0  0  0
   -0.0126    1.0758    0.0080 C   0  0  0  0  0  0  0  0  0  0  0  0
    1.1211    1.7303    0.0006 N   0  0  0  0  0  0  0  0  0  0  0  0
    1.1605    3.0676    0.0075 C   0  0  0  0  0  0  0  0  0  0  0  0
    2.3884    3.7500   -0.0012 C   0  0  0  0  0  0  0  0  0  0  0  0
    2.4072    5.1146    0.0056 C   0  0  0  0  0  0  0  0  0  0  0  0
    3.5984    5.7684   -0.0028 O   0  0  0  0  0  0  0  0  0  0  0  0
    4.7796    4.9643   -0.0185 C   0  0  0  0  0  0  0  0  0  0  0  0
   -2.5139    0.9730    0.0189 C   0  0  0  0  0  0  0  0  0  0  0  0
   -3.7377    1.6397    0.0342 C   0  0  0  0  0  0  0  0  0  0  0  0
   -4.9139    0.9184    0.0301 C   0  0  0  0  0  0  0  0  0  0  0  0
   -4.8796   -0.4667    0.0219 C   0  0  0  0  0  0  0  0  0  0  0  0
   -3.6652   -1.1336    0.0120 C   0  0  0  0  0  0  0  0  0  0  0  0
   -2.4841   -0.4204    0.0107 C   0  0  0  0  0  0  0  0  0  0  0  0
   -6.0337   -1.1690    0.0232 F   0  0  0  0  0  0  0  0  0  0  0  0
   -0.5629    7.6356   -0.8434 H   0  0  0  0  0  0  0  0  0  0  0  0
   -0.5461    7.6265    0.9364 H   0  0  0  0  0  0  0  0  0  0  0  0
    0.1936    8.9788    0.0464 H   0  0  0  0  0  0  0  0  0  0  0  0
   -0.9090    5.7947    0.0405 H   0  0  0  0  0  0  0  0  0  0  0  0
   -2.2090    3.6698    0.0434 H   0  0  0  0  0  0  0  0  0  0  0  0
    0.0021   -0.0041    0.0020 H   0  0  0  0  0  0  0  0  0  0  0  0
    3.3155    3.1960   -0.0135 H   0  0  0  0  0  0  0  0  0  0  0  0
    4.7995    4.3306    0.8681 H   0  0  0  0  0  0  0  0  0  0  0  0
    4.7820    4.3397   -0.9117 H   0  0  0  0  0  0  0  0  0  0  0  0
    5.6582    5.6094   -0.0239 H   0  0  0  0  0  0  0  0  0  0  0  0
   -3.7654    2.7193    0.0451 H   0  0  0  0  0  0  0  0  0  0  0  0
   -5.8627    1.4342    0.0378 H   0  0  0  0  0  0  0  0  0  0  0  0
   -3.6430   -2.2133    0.0057 H   0  0  0  0  0  0  0  0  0  0  0  0
   -1.5379   -0.9410    0.0037 H   0  0  0  0  0  0  0  0  0  0  0  0
  1  2  1  0  0  0  0
  1 22  1  0  0  0  0
  1 23  1  0  0  0  0
  1 24  1  0  0  0  0
  2  3  1  0  0  0  0
  3 12  2  0  0  0  0
  3  4  1  0  0  0  0
  4  5  2  0  0  0  0
  4 25  1  0  0  0  0
  5 10  1  0  0  0  0
  5  6  1  0  0  0  0
  6  7  2  0  0  0  0
  6 26  1  0  0  0  0
  7  8  1  0  0  0  0
  7 15  1  0  0  0  0
  8  9  2  0  0  0  0
  8 27  1  0  0  0  0
  9 10  1  0  0  0  0
 10 11  2  0  0  0  0
 11 12  1  0  0  0  0
 11 28  1  0  0  0  0
 12 13  1  0  0  0  0
 13 14  1  0  0  0  0
 14 29  1  0  0  0  0
 14 30  1  0  0  0  0
 14 31  1  0  0  0  0
 15 20  2  0  0  0  0
 15 16  1  0  0  0  0
 16 17  2  0  0  0  0
 16 32  1  0  0  0  0
 17 18  1  0  0  0  0
 17 33  1  0  0  0  0
 18 19  2  0  0  0  0
 18 21  1  0  0  0  0
 19 20  1  0  0  0  0
 19 34  1  0  0  0  0
 20 35  1  0  0  0  0
M  END
$$$$
ZINC03834029
  -OEChem-08230709403D

 37 39  0     0  0  0  0  0  0999 V2000
   11.9154    0.0213   -0.1107 C   0  0  0  0  0  0  0  0  0  0  0  0
   11.9288   -1.4076   -0.1176 O   0  0  0  0  0  0  0  0  0  0  0  0
   10.7235   -2.0361   -0.1096 C   0  0  0  0  0  0  0  0  0  0  0  0
    9.5767   -1.2972   -0.0956 C   0  0  0  0  0  0  0  0  0  0  0  0
    8.3303   -1.9473   -0.0877 C   0  0  0  0  0  0  0  0  0  0  0  0
    7.1312   -1.2168   -0.0729 C   0  0  0  0  0  0  0  0  0  0  0  0
    5.9338   -1.9266   -0.0653 C   0  0  0  0  0  0  0  0  0  0  0  0
    5.9640   -3.3334   -0.0672 C   0  0  0  0  0  0  0  0  0  0  0  0
    7.0936   -3.9929   -0.0865 N   0  0  0  0  0  0  0  0  0  0  0  0
    8.2756   -3.3651   -0.0944 C   0  0  0  0  0  0  0  0  0  0  0  0
    9.4750   -4.0957   -0.1094 C   0  0  0  0  0  0  0  0  0  0  0  0
   10.6713   -3.4382   -0.1163 C   0  0  0  0  0  0  0  0  0  0  0  0
   11.8277   -4.1515   -0.1303 O   0  0  0  0  0  0  0  0  0  0  0  0
   11.7113   -5.5758   -0.1366 C   0  0  0  0  0  0  0  0  0  0  0  0
    4.6822   -1.2311   -0.0496 C   0  0  0  0  0  0  0  0  0  0  0  0
    3.6560   -0.6610   -0.0368 C   0  0  0  0  0  0  0  0  0  0  0  0
    2.4043    0.0345   -0.0211 C   0  0  0  0  0  0  0  0  0  0  0  0
    1.2037   -0.6807   -0.0135 C   0  0  0  0  0  0  0  0  0  0  0  0
    0.0021   -0.0041    0.0020 C   0  0  0  0  0  0  0  0  0  0  0  0
   -0.0167    1.3796    0.0096 C   0  0  0  0  0  0  0  0  0  0  0  0
    1.1681    2.0946    0.0022 C   0  0  0  0  0  0  0  0  0  0  0  0
    2.3774    1.4317   -0.0129 C   0  0  0  0  0  0  0  0  0  0  0  0
   12.9396    0.3943   -0.1183 H   0  0  0  0  0  0  0  0  0  0  0  0
   11.3901    0.3841   -0.9942 H   0  0  0  0  0  0  0  0  0  0  0  0
   11.4064    0.3756    0.7857 H   0  0  0  0  0  0  0  0  0  0  0  0
    9.6262   -0.2184   -0.0901 H   0  0  0  0  0  0  0  0  0  0  0  0
    7.1378   -0.1368   -0.0672 H   0  0  0  0  0  0  0  0  0  0  0  0
    5.0332   -3.8812   -0.0571 H   0  0  0  0  0  0  0  0  0  0  0  0
    9.4509   -5.1754   -0.1154 H   0  0  0  0  0  0  0  0  0  0  0  0
   11.1776   -5.9006    0.7566 H   0  0  0  0  0  0  0  0  0  0  0  0
   11.1616   -5.8915   -1.0233 H   0  0  0  0  0  0  0  0  0  0  0  0
   12.7060   -6.0215   -0.1478 H   0  0  0  0  0  0  0  0  0  0  0  0
    1.2169   -1.7606   -0.0202 H   0  0  0  0  0  0  0  0  0  0  0  0
   -0.9266   -0.5554    0.0079 H   0  0  0  0  0  0  0  0  0  0  0  0
   -0.9607    1.9041    0.0169 H   0  0  0  0  0  0  0  0  0  0  0  0
    1.1457    3.1743    0.0081 H   0  0  0  0  0  0  0  0  0  0  0  0
    3.3013    1.9909   -0.0183 H   0  0  0  0  0  0  0  0  0  0  0  0
  1  2  1  0  0  0  0
  1 23  1  0  0  0  0
  1 24  1  0  0  0  0
  1 25  1  0  0  0  0
  2  3  1  0  0  0  0
  3 12  2  0  0  0  0
  3  4  1  0  0  0  0
  4  5  2  0  0  0  0
  4 26  1  0  0  0  0
  5 10  1  0  0  0  0
  5  6  1  0  0  0  0
  6  7  2  0  0  0  0
  6 27  1  0  0  0  0
  7  8  1  0  0  0  0
  7 15  1  0  0  0  0
  8  9  2  0  0  0  0
  8 28  1  0  0  0  0
  9 10  1  0  0  0  0
 10 11  2  0  0  0  0
 11 12  1  0  0  0  0
 11 29  1  0  0  0  0
 12 13  1  0  0  0  0
 13 14  1  0  0  0  0
 14 30  1  0  0  0  0
 14 31  1  0  0  0  0
 14 32  1  0  0  0  0
 15 16  3  0  0  0  0
 16 17  1  0  0  0  0
 17 22  2  0  0  0  0
 17 18  1  0  0  0  0
 18 19  2  0  0  0  0
 18 33  1  0  0  0  0
 19 20  1  0  0  0  0
 19 34  1  0  0  0  0
 20 21  2  0  0  0  0
 20 35  1  0  0  0  0
 21 22  1  0  0  0  0
 21 36  1  0  0  0  0
 22 37  1  0  0  0  0
M  END
$$$$
ZINC03834030
  -OEChem-08230709403D

 40 42  0     0  0  0  0  0  0999 V2000
    1.4438   -4.7328   -0.0359 C   0  0  0  0  0  0  0  0  0  0  0  0
    2.6698   -3.9987   -0.0436 O   0  0  0  0  0  0  0  0  0  0  0  0
    2.5771   -2.6425   -0.0358 C   0  0  0  0  0  0  0  0  0  0  0  0
    1.3481   -2.0498   -0.0214 C   0  0  0  0  0  0  0  0  0  0  0  0
    1.2522   -0.6483   -0.0134 C   0  0  0  0  0  0  0  0  0  0  0  0
    0.0021   -0.0041    0.0020 C   0  0  0  0  0  0  0  0  0  0  0  0
   -0.0167    1.3778    0.0096 C   0  0  0  0  0  0  0  0  0  0  0  0
    1.1902    2.0863    0.0019 C   0  0  0  0  0  0  0  0  0  0  0  0
    2.3474    1.4720   -0.0120 N   0  0  0  0  0  0  0  0  0  0  0  0
    2.4322    0.1377   -0.0204 C   0  0  0  0  0  0  0  0  0  0  0  0
    3.6828   -0.5041   -0.0348 C   0  0  0  0  0  0  0  0  0  0  0  0
    3.7460   -1.8668   -0.0423 C   0  0  0  0  0  0  0  0  0  0  0  0
    4.9582   -2.4814   -0.0557 O   0  0  0  0  0  0  0  0  0  0  0  0
    6.1126   -1.6392   -0.0617 C   0  0  0  0  0  0  0  0  0  0  0  0
   -1.2344    2.0641    0.0191 N   0  0  0  0  0  0  0  0  0  0  0  0
   -1.2497    3.5290    0.0271 C   0  0  0  0  0  0  0  0  0  0  0  0
   -2.6756    4.0165    0.0365 C   0  0  0  0  0  0  0  0  0  0  0  0
   -3.3334    4.2520   -1.1562 C   0  0  0  0  0  0  0  0  0  0  0  0
   -4.6431    4.6941   -1.1476 C   0  0  0  0  0  0  0  0  0  0  0  0
   -5.2915    4.9112    0.0538 C   0  0  0  0  0  0  0  0  0  0  0  0
   -4.6318    4.6811    1.2466 C   0  0  0  0  0  0  0  0  0  0  0  0
   -3.3239    4.2336    1.2380 C   0  0  0  0  0  0  0  0  0  0  0  0
    0.8764   -4.4832    0.8607 H   0  0  0  0  0  0  0  0  0  0  0  0
    0.8598   -4.4741   -0.9192 H   0  0  0  0  0  0  0  0  0  0  0  0
    1.6599   -5.8012   -0.0433 H   0  0  0  0  0  0  0  0  0  0  0  0
    0.4537   -2.6551   -0.0165 H   0  0  0  0  0  0  0  0  0  0  0  0
   -0.9162   -0.5725    0.0074 H   0  0  0  0  0  0  0  0  0  0  0  0
    1.1671    3.1660    0.0075 H   0  0  0  0  0  0  0  0  0  0  0  0
    4.5911    0.0801   -0.0402 H   0  0  0  0  0  0  0  0  0  0  0  0
    6.0956   -1.0057   -0.9486 H   0  0  0  0  0  0  0  0  0  0  0  0
    6.1110   -1.0142    0.8313 H   0  0  0  0  0  0  0  0  0  0  0  0
    7.0117   -2.2553   -0.0725 H   0  0  0  0  0  0  0  0  0  0  0  0
   -2.0694    1.5704    0.0204 H   0  0  0  0  0  0  0  0  0  0  0  0
   -0.7354    3.8928    0.9167 H   0  0  0  0  0  0  0  0  0  0  0  0
   -0.7438    3.9025   -0.8632 H   0  0  0  0  0  0  0  0  0  0  0  0
   -2.8254    4.0866   -2.0949 H   0  0  0  0  0  0  0  0  0  0  0  0
   -5.1586    4.8735   -2.0796 H   0  0  0  0  0  0  0  0  0  0  0  0
   -6.3135    5.2602    0.0605 H   0  0  0  0  0  0  0  0  0  0  0  0
   -5.1383    4.8507    2.1853 H   0  0  0  0  0  0  0  0  0  0  0  0
   -2.8085    4.0538    2.1699 H   0  0  0  0  0  0  0  0  0  0  0  0
  1  2  1  0  0  0  0
  1 23  1  0  0  0  0
  1 24  1  0  0  0  0
  1 25  1  0  0  0  0
  2  3  1  0  0  0  0
  3 12  2  0  0  0  0
  3  4  1  0  0  0  0
  4  5  2  0  0  0  0
  4 26  1  0  0  0  0
  5 10  1  0  0  0  0
  5  6  1  0  0  0  0
  6  7  2  0  0  0  0
  6 27  1  0  0  0  0
  7  8  1  0  0  0  0
  7 15  1  0  0  0  0
  8  9  2  0  0  0  0
  8 28  1  0  0  0  0
  9 10  1  0  0  0  0
 10 11  2  0  0  0  0
 11 12  1  0  0  0  0
 11 29  1  0  0  0  0
 12 13  1  0  0  0  0
 13 14  1  0  0  0  0
 14 30  1  0  0  0  0
 14 31  1  0  0  0  0
 14 32  1  0  0  0  0
 15 16  1  0  0  0  0
 15 33  1  0  0  0  0
 16 17  1  0  0  0  0
 16 34  1  0  0  0  0
 16 35  1  0  0  0  0
 17 22  2  0  0  0  0
 17 18  1  0  0  0  0
 18 19  2  0  0  0  0
 18 36  1  0  0  0  0
 19 20  1  0  0  0  0
 19 37  1  0  0  0  0
 20 21  2  0  0  0  0
 20 38  1  0  0  0  0
 21 22  1  0  0  0  0
 21 39  1  0  0  0  0
 22 40  1  0  0  0  0
M  END
$$$$
ZINC03834031
  -OEChem-08230709403D

 39 41  0     0  0  0  0  0  0999 V2000
    2.8020    8.1189    0.0201 C   0  0  0  0  0  0  0  0  0  0  0  0
    4.0089    7.3540    0.0053 O   0  0  0  0  0  0  0  0  0  0  0  0
    3.8817    6.0005   -0.0008 C   0  0  0  0  0  0  0  0  0  0  0  0
    2.6380    5.4393    0.0072 C   0  0  0  0  0  0  0  0  0  0  0  0
    2.5064    4.0409    0.0003 C   0  0  0  0  0  0  0  0  0  0  0  0
    1.2406    3.4276    0.0086 C   0  0  0  0  0  0  0  0  0  0  0  0
    1.1854    2.0584    0.0018 C   0  0  0  0  0  0  0  0  0  0  0  0
    2.3688    1.3150   -0.0077 C   0  0  0  0  0  0  0  0  0  0  0  0
    3.5448    1.8938   -0.0202 N   0  0  0  0  0  0  0  0  0  0  0  0
    3.6662    3.2254   -0.0147 C   0  0  0  0  0  0  0  0  0  0  0  0
    4.9327    3.8347   -0.0231 C   0  0  0  0  0  0  0  0  0  0  0  0
    5.0306    5.1955   -0.0158 C   0  0  0  0  0  0  0  0  0  0  0  0
    6.2580    5.7792   -0.0235 O   0  0  0  0  0  0  0  0  0  0  0  0
    7.3906    4.9080   -0.0388 C   0  0  0  0  0  0  0  0  0  0  0  0
   -0.0173    1.4248    0.0099 O   0  0  0  0  0  0  0  0  0  0  0  0
    0.0021   -0.0041    0.0020 C   0  0  0  0  0  0  0  0  0  0  0  0
   -1.4117   -0.5257    0.0127 C   0  0  0  0  0  0  0  0  0  0  0  0
   -2.0468   -0.7767    1.2146 C   0  0  0  0  0  0  0  0  0  0  0  0
   -3.3455   -1.2502    1.2245 C   0  0  0  0  0  0  0  0  0  0  0  0
   -4.0053   -1.4830    0.0323 C   0  0  0  0  0  0  0  0  0  0  0  0
   -3.3683   -1.2374   -1.1696 C   0  0  0  0  0  0  0  0  0  0  0  0
   -2.0716   -0.7585   -1.1795 C   0  0  0  0  0  0  0  0  0  0  0  0
    2.2122    7.8842   -0.8659 H   0  0  0  0  0  0  0  0  0  0  0  0
    2.2279    7.8746    0.9139 H   0  0  0  0  0  0  0  0  0  0  0  0
    3.0453    9.1814    0.0237 H   0  0  0  0  0  0  0  0  0  0  0  0
    1.7593    6.0672    0.0190 H   0  0  0  0  0  0  0  0  0  0  0  0
    0.3373    4.0195    0.0204 H   0  0  0  0  0  0  0  0  0  0  0  0
    2.3129    0.2365   -0.0088 H   0  0  0  0  0  0  0  0  0  0  0  0
    5.8258    3.2275   -0.0346 H   0  0  0  0  0  0  0  0  0  0  0  0
    7.3734    4.2741    0.8478 H   0  0  0  0  0  0  0  0  0  0  0  0
    7.3573    4.2843   -0.9320 H   0  0  0  0  0  0  0  0  0  0  0  0
    8.3051    5.5011   -0.0436 H   0  0  0  0  0  0  0  0  0  0  0  0
    0.5123   -0.3556   -0.8948 H   0  0  0  0  0  0  0  0  0  0  0  0
    0.5293   -0.3651    0.8851 H   0  0  0  0  0  0  0  0  0  0  0  0
   -1.5297   -0.5990    2.1460 H   0  0  0  0  0  0  0  0  0  0  0  0
   -3.8433   -1.4417    2.1636 H   0  0  0  0  0  0  0  0  0  0  0  0
   -5.0187   -1.8564    0.0400 H   0  0  0  0  0  0  0  0  0  0  0  0
   -3.8838   -1.4192   -2.1011 H   0  0  0  0  0  0  0  0  0  0  0  0
   -1.5739   -0.5666   -2.1185 H   0  0  0  0  0  0  0  0  0  0  0  0
  1  2  1  0  0  0  0
  1 23  1  0  0  0  0
  1 24  1  0  0  0  0
  1 25  1  0  0  0  0
  2  3  1  0  0  0  0
  3 12  2  0  0  0  0
  3  4  1  0  0  0  0
  4  5  2  0  0  0  0
  4 26  1  0  0  0  0
  5 10  1  0  0  0  0
  5  6  1  0  0  0  0
  6  7  2  0  0  0  0
  6 27  1  0  0  0  0
  7  8  1  0  0  0  0
  7 15  1  0  0  0  0
  8  9  2  0  0  0  0
  8 28  1  0  0  0  0
  9 10  1  0  0  0  0
 10 11  2  0  0  0  0
 11 12  1  0  0  0  0
 11 29  1  0  0  0  0
 12 13  1  0  0  0  0
 13 14  1  0  0  0  0
 14 30  1  0  0  0  0
 14 31  1  0  0  0  0
 14 32  1  0  0  0  0
 15 16  1  0  0  0  0
 16 17  1  0  0  0  0
 16 33  1  0  0  0  0
 16 34  1  0  0  0  0
 17 22  2  0  0  0  0
 17 18  1  0  0  0  0
 18 19  2  0  0  0  0
 18 35  1  0  0  0  0
 19 20  1  0  0  0  0
 19 36  1  0  0  0  0
 20 21  2  0  0  0  0
 20 37  1  0  0  0  0
 21 22  1  0  0  0  0
 21 38  1  0  0  0  0
 22 39  1  0  0  0  0
M  END
$$$$
ZINC03834032
  -OEChem-08230709403D

 40 42  0     0  0  0  0  0  0999 V2000
    2.3355    2.0608   -0.1114 C   0  0  0  0  0  0  0  0  0  0  0  0
    0.8597    2.3235   -0.2670 C   0  0  0  0  0  0  0  0  0  0  0  0
    0.2566    3.5618   -0.4946 C   0  0  0  0  0  0  0  0  0  0  0  0
   -1.0833    3.3665   -0.5730 C   0  0  0  0  0  0  0  0  0  0  0  0
   -1.3469    2.0457   -0.4087 N   0  0  0  0  0  0  0  0  0  0  0  0
   -2.2268    1.6378   -0.4247 H   0  0  0  0  0  0  0  0  0  0  0  0
   -0.1556    1.3809   -0.2113 C   0  0  0  0  0  0  0  0  0  0  0  0
    0.0021   -0.0041    0.0020 C   0  0  0  0  0  0  0  0  0  0  0  0
   -0.9659   -0.7120    0.6886 C   0  0  0  0  0  0  0  0  0  0  0  0
   -1.0457   -2.1775    0.8763 C   0  0  0  0  0  0  0  0  0  0  0  0
   -0.2455   -3.2373    0.4616 C   0  0  0  0  0  0  0  0  0  0  0  0
   -0.5899   -4.5293    0.8035 C   0  0  0  0  0  0  0  0  0  0  0  0
   -1.7274   -4.7687    1.5567 C   0  0  0  0  0  0  0  0  0  0  0  0
   -2.5279   -3.7246    1.9729 C   0  0  0  0  0  0  0  0  0  0  0  0
   -2.1978   -2.4158    1.6381 C   0  0  0  0  0  0  0  0  0  0  0  0
   -2.8154   -1.2041    1.9219 N   0  0  0  0  0  0  0  0  0  0  0  0
   -2.1345   -0.1721    1.3953 C   0  0  0  0  0  0  0  0  0  0  0  0
   -2.4356    1.0049    1.4857 O   0  0  0  0  0  0  0  0  0  0  0  0
   -2.1123    4.4415   -0.8108 C   0  0  0  0  0  0  0  0  0  0  0  0
    0.9690    4.8829   -0.6298 C   0  0  0  0  0  0  0  0  0  0  0  0
    1.3229    5.1235   -2.0987 C   0  0  0  0  0  0  0  0  0  0  0  0
    2.0353    6.4446   -2.2339 C   0  0  0  0  0  0  0  0  0  0  0  0
    2.2389    7.1240   -1.2557 O   0  0  0  0  0  0  0  0  0  0  0  0
    2.7719    1.8501   -1.0877 H   0  0  0  0  0  0  0  0  0  0  0  0
    2.8171    2.9382    0.3202 H   0  0  0  0  0  0  0  0  0  0  0  0
    2.4847    1.2042    0.5458 H   0  0  0  0  0  0  0  0  0  0  0  0
    0.8793   -0.5115   -0.3712 H   0  0  0  0  0  0  0  0  0  0  0  0
    0.6417   -3.0498   -0.1250 H   0  0  0  0  0  0  0  0  0  0  0  0
    0.0287   -5.3548    0.4836 H   0  0  0  0  0  0  0  0  0  0  0  0
   -1.9907   -5.7824    1.8204 H   0  0  0  0  0  0  0  0  0  0  0  0
   -3.4123   -3.9241    2.5598 H   0  0  0  0  0  0  0  0  0  0  0  0
   -3.6320   -1.1141    2.4377 H   0  0  0  0  0  0  0  0  0  0  0  0
   -2.2796    4.5537   -1.8820 H   0  0  0  0  0  0  0  0  0  0  0  0
   -3.0472    4.1636   -0.3242 H   0  0  0  0  0  0  0  0  0  0  0  0
   -1.7543    5.3847   -0.3982 H   0  0  0  0  0  0  0  0  0  0  0  0
    0.3193    5.6838   -0.2767 H   0  0  0  0  0  0  0  0  0  0  0  0
    1.8817    4.8662   -0.0341 H   0  0  0  0  0  0  0  0  0  0  0  0
    1.9726    4.3226   -2.4518 H   0  0  0  0  0  0  0  0  0  0  0  0
    0.4102    5.1402   -2.6943 H   0  0  0  0  0  0  0  0  0  0  0  0
    2.4435    6.8666   -3.4410 O   0  5  0  0  0  0  0  0  0  0  0  0
  1  2  1  0  0  0  0
  1 24  1  0  0  0  0
  1 25  1  0  0  0  0
  1 26  1  0  0  0  0
  2  7  2  0  0  0  0
  2  3  1  0  0  0  0
  3  4  2  0  0  0  0
  3 20  1  0  0  0  0
  4  5  1  0  0  0  0
  4 19  1  0  0  0  0
  5  6  1  0  0  0  0
  5  7  1  0  0  0  0
  7  8  1  0  0  0  0
  8  9  2  0  0  0  0
  8 27  1  0  0  0  0
  9 17  1  0  0  0  0
  9 10  1  0  0  0  0
 10 15  2  0  0  0  0
 10 11  1  0  0  0  0
 11 12  2  0  0  0  0
 11 28  1  0  0  0  0
 12 13  1  0  0  0  0
 12 29  1  0  0  0  0
 13 14  2  0  0  0  0
 13 30  1  0  0  0  0
 14 15  1  0  0  0  0
 14 31  1  0  0  0  0
 15 16  1  0  0  0  0
 16 17  1  0  0  0  0
 16 32  1  0  0  0  0
 17 18  2  0  0  0  0
 19 33  1  0  0  0  0
 19 34  1  0  0  0  0
 19 35  1  0  0  0  0
 20 21  1  0  0  0  0
 20 36  1  0  0  0  0
 20 37  1  0  0  0  0
 21 22  1  0  0  0  0
 21 38  1  0  0  0  0
 21 39  1  0  0  0  0
 22 23  2  0  0  0  0
 22 40  1  0  0  0  0
M  CHG  1  40  -1
M  END
$$$$
ZINC03834033
  -OEChem-08230709403D

 40 42  0     0  0  0  0  0  0999 V2000
   -0.3079    1.0812    0.1612 C   0  0  0  0  0  0  0  0  0  0  0  0
   -0.8840    1.3961    1.5177 C   0  0  0  0  0  0  0  0  0  0  0  0
   -2.2386    1.4636    1.8487 C   0  0  0  0  0  0  0  0  0  0  0  0
   -2.3324    1.7701    3.1667 C   0  0  0  0  0  0  0  0  0  0  0  0
   -1.0830    1.9073    3.6776 N   0  0  0  0  0  0  0  0  0  0  0  0
   -0.8687    2.1285    4.5975 H   0  0  0  0  0  0  0  0  0  0  0  0
   -0.1690    1.6794    2.6713 C   0  0  0  0  0  0  0  0  0  0  0  0
    1.2352    1.7259    2.7927 C   0  0  0  0  0  0  0  0  0  0  0  0
    1.8239    2.6205    3.6659 C   0  0  0  0  0  0  0  0  0  0  0  0
    3.2533    2.7058    4.0388 C   0  0  0  0  0  0  0  0  0  0  0  0
    4.3826    1.9875    3.6590 C   0  0  0  0  0  0  0  0  0  0  0  0
    5.6140    2.3168    4.1901 C   0  0  0  0  0  0  0  0  0  0  0  0
    5.7237    3.3622    5.0934 C   0  0  0  0  0  0  0  0  0  0  0  0
    4.6101    4.0842    5.4716 C   0  0  0  0  0  0  0  0  0  0  0  0
    3.3616    3.7674    4.9474 C   0  0  0  0  0  0  0  0  0  0  0  0
    2.1036    4.3204    5.1545 N   0  0  0  0  0  0  0  0  0  0  0  0
    1.1654    3.6881    4.4294 C   0  0  0  0  0  0  0  0  0  0  0  0
   -0.0234    3.9538    4.4093 O   0  0  0  0  0  0  0  0  0  0  0  0
    7.1523    1.3399    3.6849 Br  0  0  0  0  0  0  0  0  0  0  0  0
   -3.6166    1.9373    3.9374 C   0  0  0  0  0  0  0  0  0  0  0  0
   -3.3933    1.2328    0.9082 C   0  0  0  0  0  0  0  0  0  0  0  0
   -3.7731   -0.2492    0.9211 C   0  0  0  0  0  0  0  0  0  0  0  0
   -4.9278   -0.4800   -0.0194 C   0  0  0  0  0  0  0  0  0  0  0  0
   -5.3986    0.4458   -0.6366 O   0  0  0  0  0  0  0  0  0  0  0  0
   -0.1566    0.0055    0.0716 H   0  0  0  0  0  0  0  0  0  0  0  0
    0.6471    1.5934    0.0442 H   0  0  0  0  0  0  0  0  0  0  0  0
   -0.9976    1.4168   -0.6132 H   0  0  0  0  0  0  0  0  0  0  0  0
    1.8504    1.0623    2.2032 H   0  0  0  0  0  0  0  0  0  0  0  0
    4.2959    1.1728    2.9553 H   0  0  0  0  0  0  0  0  0  0  0  0
    6.6898    3.6144    5.5049 H   0  0  0  0  0  0  0  0  0  0  0  0
    4.7084    4.8967    6.1763 H   0  0  0  0  0  0  0  0  0  0  0  0
    1.9255    5.0675    5.7470 H   0  0  0  0  0  0  0  0  0  0  0  0
   -3.9385    2.9774    3.8858 H   0  0  0  0  0  0  0  0  0  0  0  0
   -4.3856    1.2971    3.5052 H   0  0  0  0  0  0  0  0  0  0  0  0
   -3.4544    1.6584    4.9785 H   0  0  0  0  0  0  0  0  0  0  0  0
   -4.2474    1.8296    1.2282 H   0  0  0  0  0  0  0  0  0  0  0  0
   -3.1037    1.5249   -0.1012 H   0  0  0  0  0  0  0  0  0  0  0  0
   -2.9190   -0.8460    0.6011 H   0  0  0  0  0  0  0  0  0  0  0  0
   -4.0627   -0.5414    1.9305 H   0  0  0  0  0  0  0  0  0  0  0  0
   -5.4332   -1.7142   -0.1714 O   0  5  0  0  0  0  0  0  0  0  0  0
  1  2  1  0  0  0  0
  1 25  1  0  0  0  0
  1 26  1  0  0  0  0
  1 27  1  0  0  0  0
  2  7  2  0  0  0  0
  2  3  1  0  0  0  0
  3  4  2  0  0  0  0
  3 21  1  0  0  0  0
  4  5  1  0  0  0  0
  4 20  1  0  0  0  0
  5  6  1  0  0  0  0
  5  7  1  0  0  0  0
  7  8  1  0  0  0  0
  8  9  2  0  0  0  0
  8 28  1  0  0  0  0
  9 17  1  0  0  0  0
  9 10  1  0  0  0  0
 10 15  2  0  0  0  0
 10 11  1  0  0  0  0
 11 12  2  0  0  0  0
 11 29  1  0  0  0  0
 12 13  1  0  0  0  0
 12 19  1  0  0  0  0
 13 14  2  0  0  0  0
 13 30  1  0  0  0  0
 14 15  1  0  0  0  0
 14 31  1  0  0  0  0
 15 16  1  0  0  0  0
 16 17  1  0  0  0  0
 16 32  1  0  0  0  0
 17 18  2  0  0  0  0
 20 33  1  0  0  0  0
 20 34  1  0  0  0  0
 20 35  1  0  0  0  0
 21 22  1  0  0  0  0
 21 36  1  0  0  0  0
 21 37  1  0  0  0  0
 22 23  1  0  0  0  0
 22 38  1  0  0  0  0
 22 39  1  0  0  0  0
 23 24  2  0  0  0  0
 23 40  1  0  0  0  0
M  CHG  1  40  -1
M  END
$$$$
ZINC03834034
  -OEChem-08230709403D

 32 34  0     0  0  0  0  0  0999 V2000
    6.6800    7.6451   -0.0225 C   0  0  0  0  0  0  0  0  0  0  0  0
    5.7418    8.7228   -0.0086 O   0  0  0  0  0  0  0  0  0  0  0  0
    4.4230    8.3930    0.0024 C   0  0  0  0  0  0  0  0  0  0  0  0
    4.0556    7.0790   -0.0002 C   0  0  0  0  0  0  0  0  0  0  0  0
    2.6921    6.7381    0.0112 C   0  0  0  0  0  0  0  0  0  0  0  0
    2.2795    5.3952    0.0085 C   0  0  0  0  0  0  0  0  0  0  0  0
    0.9148    5.1321    0.0197 C   0  0  0  0  0  0  0  0  0  0  0  0
    0.0040    6.2026    0.0278 C   0  0  0  0  0  0  0  0  0  0  0  0
    0.4102    7.4465    0.0351 N   0  0  0  0  0  0  0  0  0  0  0  0
    1.7105    7.7621    0.0252 C   0  0  0  0  0  0  0  0  0  0  0  0
    2.1228    9.1050    0.0275 C   0  0  0  0  0  0  0  0  0  0  0  0
    3.4537    9.4072    0.0158 C   0  0  0  0  0  0  0  0  0  0  0  0
    3.8454   10.7084    0.0177 O   0  0  0  0  0  0  0  0  0  0  0  0
    2.8133   11.6966    0.0316 C   0  0  0  0  0  0  0  0  0  0  0  0
    0.4251    3.7375    0.0170 C   0  0  0  0  0  0  0  0  0  0  0  0
   -0.8640    3.2756    0.0265 C   0  0  0  0  0  0  0  0  0  0  0  0
   -1.0799    1.9148    0.0166 C   0  0  0  0  0  0  0  0  0  0  0  0
   -0.0126    1.0758    0.0080 C   0  0  0  0  0  0  0  0  0  0  0  0
    1.3604    2.2168    0.0010 S   0  0  0  0  0  0  0  0  0  0  0  0
    6.5226    7.0378   -0.9139 H   0  0  0  0  0  0  0  0  0  0  0  0
    7.6937    8.0458   -0.0303 H   0  0  0  0  0  0  0  0  0  0  0  0
    6.5395    7.0295    0.8660 H   0  0  0  0  0  0  0  0  0  0  0  0
    4.8086    6.3049   -0.0113 H   0  0  0  0  0  0  0  0  0  0  0  0
    3.0009    4.5916   -0.0017 H   0  0  0  0  0  0  0  0  0  0  0  0
   -1.0556    5.9936    0.0324 H   0  0  0  0  0  0  0  0  0  0  0  0
    1.3882    9.8967    0.0377 H   0  0  0  0  0  0  0  0  0  0  0  0
    3.2615   12.6902    0.0317 H   0  0  0  0  0  0  0  0  0  0  0  0
    2.1872   11.5805   -0.8530 H   0  0  0  0  0  0  0  0  0  0  0  0
    2.2039   11.5729    0.9269 H   0  0  0  0  0  0  0  0  0  0  0  0
   -1.6955    3.9647    0.0378 H   0  0  0  0  0  0  0  0  0  0  0  0
   -2.0854    1.5206    0.0190 H   0  0  0  0  0  0  0  0  0  0  0  0
    0.0021   -0.0041    0.0020 H   0  0  0  0  0  0  0  0  0  0  0  0
  1  2  1  0  0  0  0
  1 20  1  0  0  0  0
  1 21  1  0  0  0  0
  1 22  1  0  0  0  0
  2  3  1  0  0  0  0
  3 12  2  0  0  0  0
  3  4  1  0  0  0  0
  4  5  2  0  0  0  0
  4 23  1  0  0  0  0
  5 10  1  0  0  0  0
  5  6  1  0  0  0  0
  6  7  2  0  0  0  0
  6 24  1  0  0  0  0
  7  8  1  0  0  0  0
  7 15  1  0  0  0  0
  8  9  2  0  0  0  0
  8 25  1  0  0  0  0
  9 10  1  0  0  0  0
 10 11  2  0  0  0  0
 11 12  1  0  0  0  0
 11 26  1  0  0  0  0
 12 13  1  0  0  0  0
 13 14  1  0  0  0  0
 14 27  1  0  0  0  0
 14 28  1  0  0  0  0
 14 29  1  0  0  0  0
 15 19  1  0  0  0  0
 15 16  2  0  0  0  0
 16 17  1  0  0  0  0
 16 30  1  0  0  0  0
 17 18  2  0  0  0  0
 17 31  1  0  0  0  0
 18 19  1  0  0  0  0
 18 32  1  0  0  0  0
M  END
$$$$
ZINC03834035
  -OEChem-08230709403D

 54 57  0     0  0  0  0  0  0999 V2000
    1.8272   13.1745    1.1075 C   0  0  0  0  0  0  0  0  0  0  0  0
    0.4907   13.0817    0.4175 C   0  0  0  0  0  0  0  0  0  0  0  0
   -0.3632   14.1442    0.1160 C   0  0  0  0  0  0  0  0  0  0  0  0
   -1.4610   13.6373   -0.4985 C   0  0  0  0  0  0  0  0  0  0  0  0
   -1.3275   12.2908   -0.6001 N   0  0  0  0  0  0  0  0  0  0  0  0
   -1.9725   11.6866   -0.9999 H   0  0  0  0  0  0  0  0  0  0  0  0
   -0.1218   11.9252   -0.0407 C   0  0  0  0  0  0  0  0  0  0  0  0
    0.3913   10.6153    0.0536 C   0  0  0  0  0  0  0  0  0  0  0  0
   -0.4673    9.5485    0.2419 C   0  0  0  0  0  0  0  0  0  0  0  0
   -0.1322    8.1081    0.2120 C   0  0  0  0  0  0  0  0  0  0  0  0
    1.0556    7.4113    0.0030 C   0  0  0  0  0  0  0  0  0  0  0  0
    1.0582    6.0346    0.0353 C   0  0  0  0  0  0  0  0  0  0  0  0
   -0.1287    5.3401    0.2772 C   0  0  0  0  0  0  0  0  0  0  0  0
   -1.3191    6.0313    0.4811 C   0  0  0  0  0  0  0  0  0  0  0  0
   -1.3295    7.4191    0.4559 C   0  0  0  0  0  0  0  0  0  0  0  0
   -2.3572    8.3386    0.6297 N   0  0  0  0  0  0  0  0  0  0  0  0
   -1.9095    9.6003    0.5149 C   0  0  0  0  0  0  0  0  0  0  0  0
   -2.5821   10.6106    0.6197 O   0  0  0  0  0  0  0  0  0  0  0  0
   -0.1218    3.8575    0.3112 C   0  0  0  0  0  0  0  0  0  0  0  0
   -1.3037    3.1580    0.5518 C   0  0  0  0  0  0  0  0  0  0  0  0
   -1.2957    1.7781    0.5768 C   0  0  0  0  0  0  0  0  0  0  0  0
   -0.1159    1.0861    0.3750 C   0  0  0  0  0  0  0  0  0  0  0  0
    1.0651    1.7746    0.1348 C   0  0  0  0  0  0  0  0  0  0  0  0
    1.0654    3.1596    0.1023 C   0  0  0  0  0  0  0  0  0  0  0  0
    2.2215    1.0901   -0.0681 O   0  0  0  0  0  0  0  0  0  0  0  0
    2.1480   -0.3362   -0.0203 C   0  0  0  0  0  0  0  0  0  0  0  0
   -2.6388   14.4396   -0.9884 C   0  0  0  0  0  0  0  0  0  0  0  0
   -0.1119   15.5978    0.4241 C   0  0  0  0  0  0  0  0  0  0  0  0
   -0.6706   15.9295    1.8093 C   0  0  0  0  0  0  0  0  0  0  0  0
   -0.4194   17.3831    2.1174 C   0  0  0  0  0  0  0  0  0  0  0  0
    0.1482   18.0821    1.3118 O   0  0  0  0  0  0  0  0  0  0  0  0
    2.6115   13.3133    0.3634 H   0  0  0  0  0  0  0  0  0  0  0  0
    1.8237   14.0212    1.7939 H   0  0  0  0  0  0  0  0  0  0  0  0
    2.0132   12.2561    1.6644 H   0  0  0  0  0  0  0  0  0  0  0  0
    1.4553   10.4455   -0.0212 H   0  0  0  0  0  0  0  0  0  0  0  0
    1.9729    7.9497   -0.1844 H   0  0  0  0  0  0  0  0  0  0  0  0
    1.9779    5.4922   -0.1269 H   0  0  0  0  0  0  0  0  0  0  0  0
   -2.2345    5.4878    0.6633 H   0  0  0  0  0  0  0  0  0  0  0  0
   -3.2798    8.0999    0.8110 H   0  0  0  0  0  0  0  0  0  0  0  0
   -2.2260    3.6958    0.7146 H   0  0  0  0  0  0  0  0  0  0  0  0
   -2.2127    1.2375    0.7589 H   0  0  0  0  0  0  0  0  0  0  0  0
   -0.1140    0.0063    0.4000 H   0  0  0  0  0  0  0  0  0  0  0  0
    1.9835    3.6966   -0.0849 H   0  0  0  0  0  0  0  0  0  0  0  0
    1.7908   -0.6489    0.9609 H   0  0  0  0  0  0  0  0  0  0  0  0
    1.4594   -0.6905   -0.7874 H   0  0  0  0  0  0  0  0  0  0  0  0
    3.1376   -0.7572   -0.1978 H   0  0  0  0  0  0  0  0  0  0  0  0
   -3.3806   14.5184   -0.1936 H   0  0  0  0  0  0  0  0  0  0  0  0
   -2.3053   15.4372   -1.2743 H   0  0  0  0  0  0  0  0  0  0  0  0
   -3.0826   13.9436   -1.8516 H   0  0  0  0  0  0  0  0  0  0  0  0
    0.9604   15.7924    0.4087 H   0  0  0  0  0  0  0  0  0  0  0  0
   -0.6046   16.2183   -0.3244 H   0  0  0  0  0  0  0  0  0  0  0  0
   -1.7429   15.7348    1.8248 H   0  0  0  0  0  0  0  0  0  0  0  0
   -0.1779   15.3090    2.5579 H   0  0  0  0  0  0  0  0  0  0  0  0
   -0.8262   17.9013    3.2869 O   0  5  0  0  0  0  0  0  0  0  0  0
  1  2  1  0  0  0  0
  1 32  1  0  0  0  0
  1 33  1  0  0  0  0
  1 34  1  0  0  0  0
  2  7  2  0  0  0  0
  2  3  1  0  0  0  0
  3  4  2  0  0  0  0
  3 28  1  0  0  0  0
  4  5  1  0  0  0  0
  4 27  1  0  0  0  0
  5  6  1  0  0  0  0
  5  7  1  0  0  0  0
  7  8  1  0  0  0  0
  8  9  2  0  0  0  0
  8 35  1  0  0  0  0
  9 17  1  0  0  0  0
  9 10  1  0  0  0  0
 10 15  2  0  0  0  0
 10 11  1  0  0  0  0
 11 12  2  0  0  0  0
 11 36  1  0  0  0  0
 12 13  1  0  0  0  0
 12 37  1  0  0  0  0
 13 14  2  0  0  0  0
 13 19  1  0  0  0  0
 14 15  1  0  0  0  0
 14 38  1  0  0  0  0
 15 16  1  0  0  0  0
 16 17  1  0  0  0  0
 16 39  1  0  0  0  0
 17 18  2  0  0  0  0
 19 24  2  0  0  0  0
 19 20  1  0  0  0  0
 20 21  2  0  0  0  0
 20 40  1  0  0  0  0
 21 22  1  0  0  0  0
 21 41  1  0  0  0  0
 22 23  2  0  0  0  0
 22 42  1  0  0  0  0
 23 24  1  0  0  0  0
 23 25  1  0  0  0  0
 24 43  1  0  0  0  0
 25 26  1  0  0  0  0
 26 44  1  0  0  0  0
 26 45  1  0  0  0  0
 26 46  1  0  0  0  0
 27 47  1  0  0  0  0
 27 48  1  0  0  0  0
 27 49  1  0  0  0  0
 28 29  1  0  0  0  0
 28 50  1  0  0  0  0
 28 51  1  0  0  0  0
 29 30  1  0  0  0  0
 29 52  1  0  0  0  0
 29 53  1  0  0  0  0
 30 31  2  0  0  0  0
 30 54  1  0  0  0  0
M  CHG  1  54  -1
M  END
$$$$
ZINC03834036
  -OEChem-08230709403D

 35 37  0     0  0  0  0  0  0999 V2000
    0.0123    7.9040    0.0416 C   0  0  0  0  0  0  0  0  0  0  0  0
    1.2617    7.2105    0.0263 O   0  0  0  0  0  0  0  0  0  0  0  0
    1.2134    5.8519    0.0198 C   0  0  0  0  0  0  0  0  0  0  0  0
    0.0047    5.2192    0.0284 C   0  0  0  0  0  0  0  0  0  0  0  0
   -0.0451    3.8148    0.0221 C   0  0  0  0  0  0  0  0  0  0  0  0
   -1.2729    3.1313    0.0306 C   0  0  0  0  0  0  0  0  0  0  0  0
   -1.2466    1.7442    0.0175 C   0  0  0  0  0  0  0  0  0  0  0  0
   -0.0126    1.0758    0.0080 C   0  0  0  0  0  0  0  0  0  0  0  0
    1.1211    1.7303    0.0006 N   0  0  0  0  0  0  0  0  0  0  0  0
    1.1605    3.0676    0.0070 C   0  0  0  0  0  0  0  0  0  0  0  0
    2.3884    3.7500   -0.0016 C   0  0  0  0  0  0  0  0  0  0  0  0
    2.4071    5.1147    0.0047 C   0  0  0  0  0  0  0  0  0  0  0  0
    3.5982    5.7684   -0.0041 O   0  0  0  0  0  0  0  0  0  0  0  0
    4.7795    4.9644   -0.0198 C   0  0  0  0  0  0  0  0  0  0  0  0
   -2.5139    0.9729    0.0194 C   0  0  0  0  0  0  0  0  0  0  0  0
   -3.7379    1.6390    0.0347 C   0  0  0  0  0  0  0  0  0  0  0  0
   -4.9138    0.9164    0.0320 C   0  0  0  0  0  0  0  0  0  0  0  0
   -4.8789   -0.4664    0.0243 C   0  0  0  0  0  0  0  0  0  0  0  0
   -3.6667   -1.1328    0.0139 C   0  0  0  0  0  0  0  0  0  0  0  0
   -2.4847   -0.4204    0.0117 C   0  0  0  0  0  0  0  0  0  0  0  0
   -0.5463    7.6265    0.9355 H   0  0  0  0  0  0  0  0  0  0  0  0
    0.1934    8.9788    0.0455 H   0  0  0  0  0  0  0  0  0  0  0  0
   -0.5631    7.6356   -0.8443 H   0  0  0  0  0  0  0  0  0  0  0  0
   -0.9091    5.7947    0.0396 H   0  0  0  0  0  0  0  0  0  0  0  0
   -2.2090    3.6698    0.0424 H   0  0  0  0  0  0  0  0  0  0  0  0
    0.0021   -0.0041    0.0020 H   0  0  0  0  0  0  0  0  0  0  0  0
    3.3154    3.1960   -0.0135 H   0  0  0  0  0  0  0  0  0  0  0  0
    4.7817    4.3394   -0.9128 H   0  0  0  0  0  0  0  0  0  0  0  0
    5.6580    5.6095   -0.0255 H   0  0  0  0  0  0  0  0  0  0  0  0
    4.7996    4.3309    0.8670 H   0  0  0  0  0  0  0  0  0  0  0  0
   -3.7663    2.7185    0.0453 H   0  0  0  0  0  0  0  0  0  0  0  0
   -5.8630    1.4316    0.0401 H   0  0  0  0  0  0  0  0  0  0  0  0
   -5.8014   -1.0278    0.0260 H   0  0  0  0  0  0  0  0  0  0  0  0
   -3.6453   -2.2125    0.0079 H   0  0  0  0  0  0  0  0  0  0  0  0
   -1.5389   -0.9417    0.0035 H   0  0  0  0  0  0  0  0  0  0  0  0
  1  2  1  0  0  0  0
  1 21  1  0  0  0  0
  1 22  1  0  0  0  0
  1 23  1  0  0  0  0
  2  3  1  0  0  0  0
  3 12  2  0  0  0  0
  3  4  1  0  0  0  0
  4  5  2  0  0  0  0
  4 24  1  0  0  0  0
  5 10  1  0  0  0  0
  5  6  1  0  0  0  0
  6  7  2  0  0  0  0
  6 25  1  0  0  0  0
  7  8  1  0  0  0  0
  7 15  1  0  0  0  0
  8  9  2  0  0  0  0
  8 26  1  0  0  0  0
  9 10  1  0  0  0  0
 10 11  2  0  0  0  0
 11 12  1  0  0  0  0
 11 27  1  0  0  0  0
 12 13  1  0  0  0  0
 13 14  1  0  0  0  0
 14 28  1  0  0  0  0
 14 29  1  0  0  0  0
 14 30  1  0  0  0  0
 15 20  2  0  0  0  0
 15 16  1  0  0  0  0
 16 17  2  0  0  0  0
 16 31  1  0  0  0  0
 17 18  1  0  0  0  0
 17 32  1  0  0  0  0
 18 19  2  0  0  0  0
 18 33  1  0  0  0  0
 19 20  1  0  0  0  0
 19 34  1  0  0  0  0
 20 35  1  0  0  0  0
M  END
$$$$
ZINC03834037
  -OEChem-08230709403D

 37 39  0     0  0  0  0  0  0999 V2000
    5.9313   -2.0496   -0.0676 C   0  0  0  0  0  0  0  0  0  0  0  0
    4.7162   -2.8016   -0.0597 O   0  0  0  0  0  0  0  0  0  0  0  0
    3.5541   -2.0963   -0.0445 C   0  0  0  0  0  0  0  0  0  0  0  0
    3.5919   -0.7326   -0.0371 C   0  0  0  0  0  0  0  0  0  0  0  0
    2.3906   -0.0036   -0.0208 C   0  0  0  0  0  0  0  0  0  0  0  0
    2.3935    1.4016   -0.0129 C   0  0  0  0  0  0  0  0  0  0  0  0
    1.1700    2.0557    0.0019 C   0  0  0  0  0  0  0  0  0  0  0  0
   -0.0157    1.3049    0.0092 C   0  0  0  0  0  0  0  0  0  0  0  0
    0.0021   -0.0041    0.0020 N   0  0  0  0  0  0  0  0  0  0  0  0
    1.1500   -0.6911   -0.0127 C   0  0  0  0  0  0  0  0  0  0  0  0
    1.1461   -2.0959   -0.0207 C   0  0  0  0  0  0  0  0  0  0  0  0
    2.3279   -2.7783   -0.0361 C   0  0  0  0  0  0  0  0  0  0  0  0
    2.3170   -4.1370   -0.0438 O   0  0  0  0  0  0  0  0  0  0  0  0
    1.0386   -4.7756   -0.0351 C   0  0  0  0  0  0  0  0  0  0  0  0
    1.1155    3.5382    0.0099 C   0  0  0  0  0  0  0  0  0  0  0  0
    2.2944    4.2814    0.0085 C   0  0  0  0  0  0  0  0  0  0  0  0
    2.2377    5.6603    0.0107 C   0  0  0  0  0  0  0  0  0  0  0  0
    1.0139    6.3048    0.0254 C   0  0  0  0  0  0  0  0  0  0  0  0
   -0.1594    5.5721    0.0326 C   0  0  0  0  0  0  0  0  0  0  0  0
   -0.1147    4.1928    0.0247 C   0  0  0  0  0  0  0  0  0  0  0  0
    0.9595    7.7840    0.0339 N   0  3  0  0  0  0  0  0  0  0  0  0
   -0.1169    8.3538    0.0472 O   0  0  0  0  0  0  0  0  0  0  0  0
    1.9912    8.4314    0.0275 O   0  5  0  0  0  0  0  0  0  0  0  0
    5.9612   -1.4167   -0.9546 H   0  0  0  0  0  0  0  0  0  0  0  0
    5.9787   -1.4263    0.8253 H   0  0  0  0  0  0  0  0  0  0  0  0
    6.7810   -2.7323   -0.0797 H   0  0  0  0  0  0  0  0  0  0  0  0
    4.5403   -0.2159   -0.0440 H   0  0  0  0  0  0  0  0  0  0  0  0
    3.3204    1.9558   -0.0184 H   0  0  0  0  0  0  0  0  0  0  0  0
   -0.9653    1.8192    0.0165 H   0  0  0  0  0  0  0  0  0  0  0  0
    0.2100   -2.6346   -0.0151 H   0  0  0  0  0  0  0  0  0  0  0  0
    0.4754   -4.4731   -0.9180 H   0  0  0  0  0  0  0  0  0  0  0  0
    1.1727   -5.8573   -0.0427 H   0  0  0  0  0  0  0  0  0  0  0  0
    0.4926   -4.4834    0.8619 H   0  0  0  0  0  0  0  0  0  0  0  0
    3.2506    3.7792    0.0016 H   0  0  0  0  0  0  0  0  0  0  0  0
    3.1507    6.2373    0.0051 H   0  0  0  0  0  0  0  0  0  0  0  0
   -1.1122    6.0805    0.0441 H   0  0  0  0  0  0  0  0  0  0  0  0
   -1.0314    3.6217    0.0304 H   0  0  0  0  0  0  0  0  0  0  0  0
  1  2  1  0  0  0  0
  1 24  1  0  0  0  0
  1 25  1  0  0  0  0
  1 26  1  0  0  0  0
  2  3  1  0  0  0  0
  3 12  2  0  0  0  0
  3  4  1  0  0  0  0
  4  5  2  0  0  0  0
  4 27  1  0  0  0  0
  5 10  1  0  0  0  0
  5  6  1  0  0  0  0
  6  7  2  0  0  0  0
  6 28  1  0  0  0  0
  7  8  1  0  0  0  0
  7 15  1  0  0  0  0
  8  9  2  0  0  0  0
  8 29  1  0  0  0  0
  9 10  1  0  0  0  0
 10 11  2  0  0  0  0
 11 12  1  0  0  0  0
 11 30  1  0  0  0  0
 12 13  1  0  0  0  0
 13 14  1  0  0  0  0
 14 31  1  0  0  0  0
 14 32  1  0  0  0  0
 14 33  1  0  0  0  0
 15 20  2  0  0  0  0
 15 16  1  0  0  0  0
 16 17  2  0  0  0  0
 16 34  1  0  0  0  0
 17 18  1  0  0  0  0
 17 35  1  0  0  0  0
 18 19  2  0  0  0  0
 18 21  1  0  0  0  0
 19 20  1  0  0  0  0
 19 36  1  0  0  0  0
 20 37  1  0  0  0  0
 21 22  2  0  0  0  0
 21 23  1  0  0  0  0
M  CHG  2  21   1  23  -1
M  END
$$$$
ZINC03834038
  -OEChem-08230709403D

 37 39  0     0  0  0  0  0  0999 V2000
    1.6122    2.6979    2.5262 C   0  0  0  0  0  0  0  0  0  0  0  0
    1.1543    1.3404    2.9935 C   0  0  0  0  0  0  0  0  0  0  0  0
    0.2235    0.5150    2.3600 C   0  0  0  0  0  0  0  0  0  0  0  0
    0.0977   -0.6166    3.0972 C   0  0  0  0  0  0  0  0  0  0  0  0
    0.9132   -0.5317    4.1783 N   0  0  0  0  0  0  0  0  0  0  0  0
    1.0130   -1.2079    4.8665 H   0  0  0  0  0  0  0  0  0  0  0  0
    1.5754    0.6765    4.1355 C   0  0  0  0  0  0  0  0  0  0  0  0
    2.5138    1.1477    5.0768 C   0  0  0  0  0  0  0  0  0  0  0  0
    2.3801    0.8156    6.4114 C   0  0  0  0  0  0  0  0  0  0  0  0
    3.3366    1.0884    7.5070 C   0  0  0  0  0  0  0  0  0  0  0  0
    4.5786    1.7134    7.5553 C   0  0  0  0  0  0  0  0  0  0  0  0
    5.2460    1.8172    8.7588 C   0  0  0  0  0  0  0  0  0  0  0  0
    4.6807    1.3009    9.9132 C   0  0  0  0  0  0  0  0  0  0  0  0
    3.4493    0.6791    9.8760 C   0  0  0  0  0  0  0  0  0  0  0  0
    2.7614    0.5648    8.6728 C   0  0  0  0  0  0  0  0  0  0  0  0
    1.5320   -0.0017    8.3600 N   0  0  0  0  0  0  0  0  0  0  0  0
    1.2551    0.1212    7.0507 C   0  0  0  0  0  0  0  0  0  0  0  0
    0.2484   -0.2765    6.4915 O   0  0  0  0  0  0  0  0  0  0  0  0
   -0.5079    0.8240    1.0791 C   0  0  0  0  0  0  0  0  0  0  0  0
    0.3649    0.4303   -0.1143 C   0  0  0  0  0  0  0  0  0  0  0  0
   -0.3664    0.7393   -1.3952 C   0  0  0  0  0  0  0  0  0  0  0  0
   -1.4723    1.2247   -1.3574 O   0  0  0  0  0  0  0  0  0  0  0  0
    0.9658    3.4657    2.9515 H   0  0  0  0  0  0  0  0  0  0  0  0
    2.6389    2.8667    2.8508 H   0  0  0  0  0  0  0  0  0  0  0  0
    1.5630    2.7433    1.4383 H   0  0  0  0  0  0  0  0  0  0  0  0
   -0.5472   -1.4503    2.8618 H   0  0  0  0  0  0  0  0  0  0  0  0
    3.3369    1.7683    4.7546 H   0  0  0  0  0  0  0  0  0  0  0  0
    5.0188    2.1154    6.6547 H   0  0  0  0  0  0  0  0  0  0  0  0
    6.2103    2.3016    8.8006 H   0  0  0  0  0  0  0  0  0  0  0  0
    5.2090    1.3855   10.8514 H   0  0  0  0  0  0  0  0  0  0  0  0
    3.0189    0.2809   10.7830 H   0  0  0  0  0  0  0  0  0  0  0  0
    0.9463   -0.4280    9.0051 H   0  0  0  0  0  0  0  0  0  0  0  0
   -0.7258    1.8910    1.0335 H   0  0  0  0  0  0  0  0  0  0  0  0
   -1.4407    0.2610    1.0484 H   0  0  0  0  0  0  0  0  0  0  0  0
    0.5829   -0.6368   -0.0687 H   0  0  0  0  0  0  0  0  0  0  0  0
    1.2978    0.9932   -0.0836 H   0  0  0  0  0  0  0  0  0  0  0  0
    0.2107    0.4753   -2.5780 O   0  5  0  0  0  0  0  0  0  0  0  0
  1  2  1  0  0  0  0
  1 23  1  0  0  0  0
  1 24  1  0  0  0  0
  1 25  1  0  0  0  0
  2  7  2  0  0  0  0
  2  3  1  0  0  0  0
  3  4  2  0  0  0  0
  3 19  1  0  0  0  0
  4  5  1  0  0  0  0
  4 26  1  0  0  0  0
  5  6  1  0  0  0  0
  5  7  1  0  0  0  0
  7  8  1  0  0  0  0
  8  9  2  0  0  0  0
  8 27  1  0  0  0  0
  9 17  1  0  0  0  0
  9 10  1  0  0  0  0
 10 15  2  0  0  0  0
 10 11  1  0  0  0  0
 11 12  2  0  0  0  0
 11 28  1  0  0  0  0
 12 13  1  0  0  0  0
 12 29  1  0  0  0  0
 13 14  2  0  0  0  0
 13 30  1  0  0  0  0
 14 15  1  0  0  0  0
 14 31  1  0  0  0  0
 15 16  1  0  0  0  0
 16 17  1  0  0  0  0
 16 32  1  0  0  0  0
 17 18  2  0  0  0  0
 19 20  1  0  0  0  0
 19 33  1  0  0  0  0
 19 34  1  0  0  0  0
 20 21  1  0  0  0  0
 20 35  1  0  0  0  0
 20 36  1  0  0  0  0
 21 22  2  0  0  0  0
 21 37  1  0  0  0  0
M  CHG  1  37  -1
M  END
$$$$
ZINC03834039
  -OEChem-08230709403D

 41 43  0     0  0  0  0  0  0999 V2000
    2.5733    1.6090    1.9940 C   0  0  0  0  0  0  0  0  0  0  0  0
    1.4182    1.1308    2.8355 C   0  0  0  0  0  0  0  0  0  0  0  0
    0.1391    0.8039    2.3806 C   0  0  0  0  0  0  0  0  0  0  0  0
   -0.5983    0.4147    3.4500 C   0  0  0  0  0  0  0  0  0  0  0  0
    0.1698    0.4900    4.5664 N   0  0  0  0  0  0  0  0  0  0  0  0
   -0.1161    0.2678    5.4662 H   0  0  0  0  0  0  0  0  0  0  0  0
    1.4238    0.9358    4.2079 C   0  0  0  0  0  0  0  0  0  0  0  0
    2.5144    1.1483    5.0770 C   0  0  0  0  0  0  0  0  0  0  0  0
    2.6890    0.3330    6.1782 C   0  0  0  0  0  0  0  0  0  0  0  0
    3.6770    0.4924    7.2688 C   0  0  0  0  0  0  0  0  0  0  0  0
    4.6702    1.4328    7.5247 C   0  0  0  0  0  0  0  0  0  0  0  0
    5.4530    1.3128    8.6539 C   0  0  0  0  0  0  0  0  0  0  0  0
    5.2489    0.2556    9.5330 C   0  0  0  0  0  0  0  0  0  0  0  0
    4.2570   -0.6796    9.2898 C   0  0  0  0  0  0  0  0  0  0  0  0
    3.4640   -0.5743    8.1530 C   0  0  0  0  0  0  0  0  0  0  0  0
    2.4298   -1.3670    7.6707 N   0  0  0  0  0  0  0  0  0  0  0  0
    1.9386   -0.8832    6.5173 C   0  0  0  0  0  0  0  0  0  0  0  0
    1.0303   -1.3686    5.8666 O   0  0  0  0  0  0  0  0  0  0  0  0
    6.0235    0.1436   10.6442 O   0  0  0  0  0  0  0  0  0  0  0  0
    7.0231    1.1454   10.8419 C   0  0  0  0  0  0  0  0  0  0  0  0
   -0.3362    0.8666    0.9519 C   0  0  0  0  0  0  0  0  0  0  0  0
    0.0410   -0.4295    0.2316 C   0  0  0  0  0  0  0  0  0  0  0  0
   -0.4343   -0.3668   -1.1971 C   0  0  0  0  0  0  0  0  0  0  0  0
   -1.0151    0.6138   -1.5981 O   0  0  0  0  0  0  0  0  0  0  0  0
    2.5526    2.6971    1.9333 H   0  0  0  0  0  0  0  0  0  0  0  0
    3.5109    1.2881    2.4479 H   0  0  0  0  0  0  0  0  0  0  0  0
    2.4918    1.1876    0.9920 H   0  0  0  0  0  0  0  0  0  0  0  0
   -1.6297    0.0960    3.4184 H   0  0  0  0  0  0  0  0  0  0  0  0
    3.2129    1.9484    4.8813 H   0  0  0  0  0  0  0  0  0  0  0  0
    4.8279    2.2538    6.8410 H   0  0  0  0  0  0  0  0  0  0  0  0
    6.2247    2.0410    8.8554 H   0  0  0  0  0  0  0  0  0  0  0  0
    4.1075   -1.4986    9.9777 H   0  0  0  0  0  0  0  0  0  0  0  0
    2.1041   -2.1680    8.1104 H   0  0  0  0  0  0  0  0  0  0  0  0
    7.5683    0.9379   11.7627 H   0  0  0  0  0  0  0  0  0  0  0  0
    7.7157    1.1388   10.0003 H   0  0  0  0  0  0  0  0  0  0  0  0
    6.5478    2.1237   10.9137 H   0  0  0  0  0  0  0  0  0  0  0  0
    0.1341    1.7117    0.4492 H   0  0  0  0  0  0  0  0  0  0  0  0
   -1.4190    0.9901    0.9343 H   0  0  0  0  0  0  0  0  0  0  0  0
   -0.4293   -1.2746    0.7343 H   0  0  0  0  0  0  0  0  0  0  0  0
    1.1239   -0.5530    0.2492 H   0  0  0  0  0  0  0  0  0  0  0  0
   -0.2123   -1.4005   -2.0242 O   0  5  0  0  0  0  0  0  0  0  0  0
  1  2  1  0  0  0  0
  1 25  1  0  0  0  0
  1 26  1  0  0  0  0
  1 27  1  0  0  0  0
  2  7  2  0  0  0  0
  2  3  1  0  0  0  0
  3  4  2  0  0  0  0
  3 21  1  0  0  0  0
  4  5  1  0  0  0  0
  4 28  1  0  0  0  0
  5  6  1  0  0  0  0
  5  7  1  0  0  0  0
  7  8  1  0  0  0  0
  8  9  2  0  0  0  0
  8 29  1  0  0  0  0
  9 17  1  0  0  0  0
  9 10  1  0  0  0  0
 10 15  2  0  0  0  0
 10 11  1  0  0  0  0
 11 12  2  0  0  0  0
 11 30  1  0  0  0  0
 12 13  1  0  0  0  0
 12 31  1  0  0  0  0
 13 14  2  0  0  0  0
 13 19  1  0  0  0  0
 14 15  1  0  0  0  0
 14 32  1  0  0  0  0
 15 16  1  0  0  0  0
 16 17  1  0  0  0  0
 16 33  1  0  0  0  0
 17 18  2  0  0  0  0
 19 20  1  0  0  0  0
 20 34  1  0  0  0  0
 20 35  1  0  0  0  0
 20 36  1  0  0  0  0
 21 22  1  0  0  0  0
 21 37  1  0  0  0  0
 21 38  1  0  0  0  0
 22 23  1  0  0  0  0
 22 39  1  0  0  0  0
 22 40  1  0  0  0  0
 23 24  2  0  0  0  0
 23 41  1  0  0  0  0
M  CHG  1  41  -1
M  END
$$$$
ZINC03834040
  -OEChem-08230709403D

 35 37  0     0  0  0  0  0  0999 V2000
    8.4592    3.0130   -0.0671 C   0  0  0  0  0  0  0  0  0  0  0  0
    8.4725    1.5841   -0.0750 O   0  0  0  0  0  0  0  0  0  0  0  0
    7.2670    0.9556   -0.0660 C   0  0  0  0  0  0  0  0  0  0  0  0
    6.1204    1.6946   -0.0496 C   0  0  0  0  0  0  0  0  0  0  0  0
    4.8743    1.0449   -0.0398 C   0  0  0  0  0  0  0  0  0  0  0  0
    3.6741    1.7756   -0.0293 C   0  0  0  0  0  0  0  0  0  0  0  0
    2.4806    1.0681   -0.0159 C   0  0  0  0  0  0  0  0  0  0  0  0
    2.5082   -0.3351   -0.0236 C   0  0  0  0  0  0  0  0  0  0  0  0
    3.6369   -0.9982   -0.0389 N   0  0  0  0  0  0  0  0  0  0  0  0
    4.8194   -0.3725   -0.0474 C   0  0  0  0  0  0  0  0  0  0  0  0
    6.0188   -1.1037   -0.0642 C   0  0  0  0  0  0  0  0  0  0  0  0
    7.2149   -0.4465   -0.0731 C   0  0  0  0  0  0  0  0  0  0  0  0
    8.3712   -1.1599   -0.0894 O   0  0  0  0  0  0  0  0  0  0  0  0
    8.2548   -2.5841   -0.0964 C   0  0  0  0  0  0  0  0  0  0  0  0
    1.1846    1.7896    0.0004 C   0  0  0  0  0  0  0  0  0  0  0  0
   -0.0126    1.0758    0.0080 C   0  0  0  0  0  0  0  0  0  0  0  0
   -1.2165    1.7500    0.0173 C   0  0  0  0  0  0  0  0  0  0  0  0
   -1.2376    3.1348    0.0297 C   0  0  0  0  0  0  0  0  0  0  0  0
   -0.0490    3.8505    0.0222 C   0  0  0  0  0  0  0  0  0  0  0  0
    1.1607    3.1828    0.0076 C   0  0  0  0  0  0  0  0  0  0  0  0
   -0.0744    5.2013    0.0297 F   0  0  0  0  0  0  0  0  0  0  0  0
   -2.4187    3.7905    0.0441 F   0  0  0  0  0  0  0  0  0  0  0  0
    7.9512    3.3667    0.8302 H   0  0  0  0  0  0  0  0  0  0  0  0
    9.4834    3.3859   -0.0756 H   0  0  0  0  0  0  0  0  0  0  0  0
    7.9328    3.3764   -0.9497 H   0  0  0  0  0  0  0  0  0  0  0  0
    6.1700    2.7735   -0.0439 H   0  0  0  0  0  0  0  0  0  0  0  0
    3.6804    2.8555   -0.0281 H   0  0  0  0  0  0  0  0  0  0  0  0
    1.5763   -0.8808   -0.0173 H   0  0  0  0  0  0  0  0  0  0  0  0
    5.9944   -2.1834   -0.0706 H   0  0  0  0  0  0  0  0  0  0  0  0
    7.7037   -2.8992   -0.9825 H   0  0  0  0  0  0  0  0  0  0  0  0
    9.2494   -3.0299   -0.1095 H   0  0  0  0  0  0  0  0  0  0  0  0
    7.7225   -2.9096    0.7974 H   0  0  0  0  0  0  0  0  0  0  0  0
    0.0021   -0.0041    0.0020 H   0  0  0  0  0  0  0  0  0  0  0  0
   -2.1440    1.1968    0.0187 H   0  0  0  0  0  0  0  0  0  0  0  0
    2.0860    3.7398    0.0021 H   0  0  0  0  0  0  0  0  0  0  0  0
  1  2  1  0  0  0  0
  1 23  1  0  0  0  0
  1 24  1  0  0  0  0
  1 25  1  0  0  0  0
  2  3  1  0  0  0  0
  3 12  2  0  0  0  0
  3  4  1  0  0  0  0
  4  5  2  0  0  0  0
  4 26  1  0  0  0  0
  5 10  1  0  0  0  0
  5  6  1  0  0  0  0
  6  7  2  0  0  0  0
  6 27  1  0  0  0  0
  7  8  1  0  0  0  0
  7 15  1  0  0  0  0
  8  9  2  0  0  0  0
  8 28  1  0  0  0  0
  9 10  1  0  0  0  0
 10 11  2  0  0  0  0
 11 12  1  0  0  0  0
 11 29  1  0  0  0  0
 12 13  1  0  0  0  0
 13 14  1  0  0  0  0
 14 30  1  0  0  0  0
 14 31  1  0  0  0  0
 14 32  1  0  0  0  0
 15 20  2  0  0  0  0
 15 16  1  0  0  0  0
 16 17  2  0  0  0  0
 16 33  1  0  0  0  0
 17 18  1  0  0  0  0
 17 34  1  0  0  0  0
 18 19  2  0  0  0  0
 18 22  1  0  0  0  0
 19 20  1  0  0  0  0
 19 21  1  0  0  0  0
 20 35  1  0  0  0  0
M  END
$$$$
ZINC03834041
  -OEChem-08230709403D

 47 50  0     0  0  0  0  0  0999 V2000
    2.5731    1.6084    1.9936 C   0  0  0  0  0  0  0  0  0  0  0  0
    1.4180    1.1304    2.8352 C   0  0  0  0  0  0  0  0  0  0  0  0
    0.1392    0.8038    2.3805 C   0  0  0  0  0  0  0  0  0  0  0  0
   -0.5984    0.4145    3.4502 C   0  0  0  0  0  0  0  0  0  0  0  0
    0.1693    0.4897    4.5664 N   0  0  0  0  0  0  0  0  0  0  0  0
   -0.1167    0.2673    5.4662 H   0  0  0  0  0  0  0  0  0  0  0  0
    1.4236    0.9354    4.2080 C   0  0  0  0  0  0  0  0  0  0  0  0
    2.5136    1.1476    5.0768 C   0  0  0  0  0  0  0  0  0  0  0  0
    2.6882    0.3316    6.1788 C   0  0  0  0  0  0  0  0  0  0  0  0
    3.6757    0.4911    7.2685 C   0  0  0  0  0  0  0  0  0  0  0  0
    4.6608    1.4407    7.5292 C   0  0  0  0  0  0  0  0  0  0  0  0
    5.4419    1.3270    8.6575 C   0  0  0  0  0  0  0  0  0  0  0  0
    5.2411    0.2646    9.5411 C   0  0  0  0  0  0  0  0  0  0  0  0
    4.2544   -0.6835    9.2885 C   0  0  0  0  0  0  0  0  0  0  0  0
    3.4626   -0.5763    8.1535 C   0  0  0  0  0  0  0  0  0  0  0  0
    2.4280   -1.3691    7.6708 N   0  0  0  0  0  0  0  0  0  0  0  0
    1.9375   -0.8845    6.5174 C   0  0  0  0  0  0  0  0  0  0  0  0
    1.0293   -1.3694    5.8662 O   0  0  0  0  0  0  0  0  0  0  0  0
    6.0845    0.1458   10.7552 C   0  0  0  0  0  0  0  0  0  0  0  0
    5.8861   -0.9092   11.6443 C   0  0  0  0  0  0  0  0  0  0  0  0
    6.6774   -1.0177   12.7697 C   0  0  0  0  0  0  0  0  0  0  0  0
    7.6583   -0.0755   13.0222 C   0  0  0  0  0  0  0  0  0  0  0  0
    7.8562    0.9765   12.1460 C   0  0  0  0  0  0  0  0  0  0  0  0
    7.0748    1.0919   11.0144 C   0  0  0  0  0  0  0  0  0  0  0  0
   -0.3362    0.8664    0.9518 C   0  0  0  0  0  0  0  0  0  0  0  0
    0.0408   -0.4297    0.2316 C   0  0  0  0  0  0  0  0  0  0  0  0
   -0.4345   -0.3671   -1.1971 C   0  0  0  0  0  0  0  0  0  0  0  0
   -1.0153    0.6136   -1.5981 O   0  0  0  0  0  0  0  0  0  0  0  0
    2.5526    2.6965    1.9328 H   0  0  0  0  0  0  0  0  0  0  0  0
    3.5107    1.2874    2.4475 H   0  0  0  0  0  0  0  0  0  0  0  0
    2.4915    1.1869    0.9917 H   0  0  0  0  0  0  0  0  0  0  0  0
   -1.6300    0.0963    3.4186 H   0  0  0  0  0  0  0  0  0  0  0  0
    3.2122    1.9477    4.8812 H   0  0  0  0  0  0  0  0  0  0  0  0
    4.8152    2.2617    6.8447 H   0  0  0  0  0  0  0  0  0  0  0  0
    6.2099    2.0592    8.8588 H   0  0  0  0  0  0  0  0  0  0  0  0
    4.1048   -1.5031    9.9757 H   0  0  0  0  0  0  0  0  0  0  0  0
    2.1015   -2.1697    8.1105 H   0  0  0  0  0  0  0  0  0  0  0  0
    5.1173   -1.6426   11.4507 H   0  0  0  0  0  0  0  0  0  0  0  0
    6.5277   -1.8373   13.4569 H   0  0  0  0  0  0  0  0  0  0  0  0
    8.2723   -0.1619   13.9065 H   0  0  0  0  0  0  0  0  0  0  0  0
    8.6236    1.7091   12.3481 H   0  0  0  0  0  0  0  0  0  0  0  0
    7.2304    1.9134   10.3309 H   0  0  0  0  0  0  0  0  0  0  0  0
    0.1342    1.7115    0.4491 H   0  0  0  0  0  0  0  0  0  0  0  0
   -1.4190    0.9901    0.9343 H   0  0  0  0  0  0  0  0  0  0  0  0
   -0.4295   -1.2748    0.7343 H   0  0  0  0  0  0  0  0  0  0  0  0
    1.1237   -0.5534    0.2491 H   0  0  0  0  0  0  0  0  0  0  0  0
   -0.2128   -1.4008   -2.0242 O   0  5  0  0  0  0  0  0  0  0  0  0
  1  2  1  0  0  0  0
  1 29  1  0  0  0  0
  1 30  1  0  0  0  0
  1 31  1  0  0  0  0
  2  7  2  0  0  0  0
  2  3  1  0  0  0  0
  3  4  2  0  0  0  0
  3 25  1  0  0  0  0
  4  5  1  0  0  0  0
  4 32  1  0  0  0  0
  5  6  1  0  0  0  0
  5  7  1  0  0  0  0
  7  8  1  0  0  0  0
  8  9  2  0  0  0  0
  8 33  1  0  0  0  0
  9 17  1  0  0  0  0
  9 10  1  0  0  0  0
 10 15  2  0  0  0  0
 10 11  1  0  0  0  0
 11 12  2  0  0  0  0
 11 34  1  0  0  0  0
 12 13  1  0  0  0  0
 12 35  1  0  0  0  0
 13 14  2  0  0  0  0
 13 19  1  0  0  0  0
 14 15  1  0  0  0  0
 14 36  1  0  0  0  0
 15 16  1  0  0  0  0
 16 17  1  0  0  0  0
 16 37  1  0  0  0  0
 17 18  2  0  0  0  0
 19 24  2  0  0  0  0
 19 20  1  0  0  0  0
 20 21  2  0  0  0  0
 20 38  1  0  0  0  0
 21 22  1  0  0  0  0
 21 39  1  0  0  0  0
 22 23  2  0  0  0  0
 22 40  1  0  0  0  0
 23 24  1  0  0  0  0
 23 41  1  0  0  0  0
 24 42  1  0  0  0  0
 25 26  1  0  0  0  0
 25 43  1  0  0  0  0
 25 44  1  0  0  0  0
 26 27  1  0  0  0  0
 26 45  1  0  0  0  0
 26 46  1  0  0  0  0
 27 28  2  0  0  0  0
 27 47  1  0  0  0  0
M  CHG  1  47  -1
M  END
$$$$
ZINC03834042
  -OEChem-08230709403D

 39 42  0     0  0  0  0  0  0999 V2000
   -7.2178   -3.0872   -3.4731 C   0  0  0  0  0  0  0  0  0  0  0  0
   -7.7873   -2.1969   -2.5113 O   0  0  0  0  0  0  0  0  0  0  0  0
   -6.9302   -1.5914   -1.6471 C   0  0  0  0  0  0  0  0  0  0  0  0
   -5.5932   -1.8506   -1.7295 C   0  0  0  0  0  0  0  0  0  0  0  0
   -4.7071   -1.2251   -0.8359 C   0  0  0  0  0  0  0  0  0  0  0  0
   -3.3245   -1.4699   -0.8928 C   0  0  0  0  0  0  0  0  0  0  0  0
   -2.5089   -0.8175    0.0216 C   0  0  0  0  0  0  0  0  0  0  0  0
   -3.0830    0.0500    0.9648 C   0  0  0  0  0  0  0  0  0  0  0  0
   -4.3732    0.2683    0.9983 N   0  0  0  0  0  0  0  0  0  0  0  0
   -5.2099   -0.3305    0.1432 C   0  0  0  0  0  0  0  0  0  0  0  0
   -6.5921   -0.0851    0.2007 C   0  0  0  0  0  0  0  0  0  0  0  0
   -7.4295   -0.7068   -0.6795 C   0  0  0  0  0  0  0  0  0  0  0  0
   -8.7654   -0.4653   -0.6180 O   0  0  0  0  0  0  0  0  0  0  0  0
   -9.2146    0.4445    0.3881 C   0  0  0  0  0  0  0  0  0  0  0  0
   -1.0436   -1.0397    0.0064 C   0  0  0  0  0  0  0  0  0  0  0  0
   -0.4067   -2.2361   -0.0061 C   0  0  0  0  0  0  0  0  0  0  0  0
    0.9446   -2.0394   -0.0179 N   0  0  0  0  0  0  0  0  0  0  0  0
    1.6086   -2.7465   -0.0280 H   0  0  0  0  0  0  0  0  0  0  0  0
    1.2283   -0.6908   -0.0134 C   0  0  0  0  0  0  0  0  0  0  0  0
    0.0021   -0.0041    0.0020 C   0  0  0  0  0  0  0  0  0  0  0  0
   -0.0168    1.3897    0.0097 C   0  0  0  0  0  0  0  0  0  0  0  0
    1.1703    2.0877    0.0021 C   0  0  0  0  0  0  0  0  0  0  0  0
    2.3815    1.4104   -0.0131 C   0  0  0  0  0  0  0  0  0  0  0  0
    2.4160    0.0332   -0.0208 C   0  0  0  0  0  0  0  0  0  0  0  0
   -6.5088   -2.5428   -4.0970 H   0  0  0  0  0  0  0  0  0  0  0  0
   -6.7011   -3.8968   -2.9576 H   0  0  0  0  0  0  0  0  0  0  0  0
   -8.0089   -3.5010   -4.0984 H   0  0  0  0  0  0  0  0  0  0  0  0
   -5.2177   -2.5333   -2.4774 H   0  0  0  0  0  0  0  0  0  0  0  0
   -2.9090   -2.1455   -1.6257 H   0  0  0  0  0  0  0  0  0  0  0  0
   -2.4446    0.5519    1.6768 H   0  0  0  0  0  0  0  0  0  0  0  0
   -6.9911    0.5939    0.9397 H   0  0  0  0  0  0  0  0  0  0  0  0
   -8.9405    0.0629    1.3716 H   0  0  0  0  0  0  0  0  0  0  0  0
   -8.7480    1.4173    0.2328 H   0  0  0  0  0  0  0  0  0  0  0  0
  -10.2981    0.5474    0.3274 H   0  0  0  0  0  0  0  0  0  0  0  0
   -0.8944   -3.1997   -0.0063 H   0  0  0  0  0  0  0  0  0  0  0  0
   -0.9578    1.9197    0.0170 H   0  0  0  0  0  0  0  0  0  0  0  0
    1.1587    3.1676    0.0080 H   0  0  0  0  0  0  0  0  0  0  0  0
    3.3061    1.9685   -0.0193 H   0  0  0  0  0  0  0  0  0  0  0  0
    3.3642   -0.4837   -0.0330 H   0  0  0  0  0  0  0  0  0  0  0  0
  1  2  1  0  0  0  0
  1 25  1  0  0  0  0
  1 26  1  0  0  0  0
  1 27  1  0  0  0  0
  2  3  1  0  0  0  0
  3 12  2  0  0  0  0
  3  4  1  0  0  0  0
  4  5  2  0  0  0  0
  4 28  1  0  0  0  0
  5 10  1  0  0  0  0
  5  6  1  0  0  0  0
  6  7  2  0  0  0  0
  6 29  1  0  0  0  0
  7  8  1  0  0  0  0
  7 15  1  0  0  0  0
  8  9  2  0  0  0  0
  8 30  1  0  0  0  0
  9 10  1  0  0  0  0
 10 11  2  0  0  0  0
 11 12  1  0  0  0  0
 11 31  1  0  0  0  0
 12 13  1  0  0  0  0
 13 14  1  0  0  0  0
 14 32  1  0  0  0  0
 14 33  1  0  0  0  0
 14 34  1  0  0  0  0
 15 20  1  0  0  0  0
 15 16  2  0  0  0  0
 16 17  1  0  0  0  0
 16 35  1  0  0  0  0
 17 18  1  0  0  0  0
 17 19  1  0  0  0  0
 19 24  2  0  0  0  0
 19 20  1  0  0  0  0
 20 21  2  0  0  0  0
 21 22  1  0  0  0  0
 21 36  1  0  0  0  0
 22 23  2  0  0  0  0
 22 37  1  0  0  0  0
 23 24  1  0  0  0  0
 23 38  1  0  0  0  0
 24 39  1  0  0  0  0
M  END
$$$$
ZINC03834043
  -OEChem-08230709403D

 39 41  0     0  0  0  0  0  0999 V2000
    5.9736    3.3073   -0.0384 C   0  0  0  0  0  0  0  0  0  0  0  0
    5.9781    1.8784   -0.0463 O   0  0  0  0  0  0  0  0  0  0  0  0
    4.7688    1.2573   -0.0377 C   0  0  0  0  0  0  0  0  0  0  0  0
    3.6267    2.0035   -0.0218 C   0  0  0  0  0  0  0  0  0  0  0  0
    2.3766    1.3614   -0.0133 C   0  0  0  0  0  0  0  0  0  0  0  0
    1.1810    2.0995    0.0021 C   0  0  0  0  0  0  0  0  0  0  0  0
   -0.0170    1.3994    0.0097 C   0  0  0  0  0  0  0  0  0  0  0  0
    0.0021   -0.0041    0.0020 C   0  0  0  0  0  0  0  0  0  0  0  0
    1.1266   -0.6740   -0.0124 N   0  0  0  0  0  0  0  0  0  0  0  0
    2.3129   -0.0556   -0.0204 C   0  0  0  0  0  0  0  0  0  0  0  0
    3.5079   -0.7942   -0.0364 C   0  0  0  0  0  0  0  0  0  0  0  0
    4.7080   -0.1444   -0.0448 C   0  0  0  0  0  0  0  0  0  0  0  0
    5.8599   -0.8649   -0.0607 O   0  0  0  0  0  0  0  0  0  0  0  0
    5.7347   -2.2884   -0.0677 C   0  0  0  0  0  0  0  0  0  0  0  0
   -1.3084    2.1288    0.0198 C   0  0  0  0  0  0  0  0  0  0  0  0
   -1.3228    3.5226    0.0333 C   0  0  0  0  0  0  0  0  0  0  0  0
   -2.5268    4.1997    0.0388 C   0  0  0  0  0  0  0  0  0  0  0  0
   -3.7228    3.4926    0.0402 C   0  0  0  0  0  0  0  0  0  0  0  0
   -3.7110    2.1033    0.0316 C   0  0  0  0  0  0  0  0  0  0  0  0
   -2.5096    1.4217    0.0217 C   0  0  0  0  0  0  0  0  0  0  0  0
   -4.8755    1.4184    0.0334 F   0  0  0  0  0  0  0  0  0  0  0  0
   -4.9068    4.1613    0.0503 O   0  0  0  0  0  0  0  0  0  0  0  0
   -5.4651    4.4726    1.3284 C   0  0  0  0  0  0  0  0  0  0  0  0
   -2.5414    5.5506    0.0480 F   0  0  0  0  0  0  0  0  0  0  0  0
    7.0001    3.6739   -0.0466 H   0  0  0  0  0  0  0  0  0  0  0  0
    5.4499    3.6739   -0.9212 H   0  0  0  0  0  0  0  0  0  0  0  0
    5.4675    3.6641    0.8586 H   0  0  0  0  0  0  0  0  0  0  0  0
    3.6830    3.0820   -0.0157 H   0  0  0  0  0  0  0  0  0  0  0  0
    1.1941    3.1794    0.0074 H   0  0  0  0  0  0  0  0  0  0  0  0
   -0.9332   -0.5440    0.0077 H   0  0  0  0  0  0  0  0  0  0  0  0
    3.4768   -1.8737   -0.0424 H   0  0  0  0  0  0  0  0  0  0  0  0
    5.2001   -2.6105    0.8259 H   0  0  0  0  0  0  0  0  0  0  0  0
    5.1820   -2.6002   -0.9539 H   0  0  0  0  0  0  0  0  0  0  0  0
    6.7265   -2.7403   -0.0804 H   0  0  0  0  0  0  0  0  0  0  0  0
   -0.3934    4.0726    0.0364 H   0  0  0  0  0  0  0  0  0  0  0  0
   -2.5009    0.3417    0.0158 H   0  0  0  0  0  0  0  0  0  0  0  0
   -5.6449    3.5503    1.8807 H   0  0  0  0  0  0  0  0  0  0  0  0
   -4.7695    5.1001    1.8857 H   0  0  0  0  0  0  0  0  0  0  0  0
   -6.4067    5.0049    1.1937 H   0  0  0  0  0  0  0  0  0  0  0  0
  1  2  1  0  0  0  0
  1 25  1  0  0  0  0
  1 26  1  0  0  0  0
  1 27  1  0  0  0  0
  2  3  1  0  0  0  0
  3 12  2  0  0  0  0
  3  4  1  0  0  0  0
  4  5  2  0  0  0  0
  4 28  1  0  0  0  0
  5 10  1  0  0  0  0
  5  6  1  0  0  0  0
  6  7  2  0  0  0  0
  6 29  1  0  0  0  0
  7  8  1  0  0  0  0
  7 15  1  0  0  0  0
  8  9  2  0  0  0  0
  8 30  1  0  0  0  0
  9 10  1  0  0  0  0
 10 11  2  0  0  0  0
 11 12  1  0  0  0  0
 11 31  1  0  0  0  0
 12 13  1  0  0  0  0
 13 14  1  0  0  0  0
 14 32  1  0  0  0  0
 14 33  1  0  0  0  0
 14 34  1  0  0  0  0
 15 20  2  0  0  0  0
 15 16  1  0  0  0  0
 16 17  2  0  0  0  0
 16 35  1  0  0  0  0
 17 18  1  0  0  0  0
 17 24  1  0  0  0  0
 18 19  2  0  0  0  0
 18 22  1  0  0  0  0
 19 20  1  0  0  0  0
 19 21  1  0  0  0  0
 20 36  1  0  0  0  0
 22 23  1  0  0  0  0
 23 37  1  0  0  0  0
 23 38  1  0  0  0  0
 23 39  1  0  0  0  0
M  END
$$$$
ZINC03834044
  -OEChem-08230709403D

 38 40  0     0  0  0  0  0  0999 V2000
   -2.8411    2.7691    4.5397 C   0  0  0  0  0  0  0  0  0  0  0  0
   -2.0675    2.3726    3.4055 O   0  0  0  0  0  0  0  0  0  0  0  0
   -2.6826    1.5851    2.4838 C   0  0  0  0  0  0  0  0  0  0  0  0
   -3.9819    1.2139    2.6724 C   0  0  0  0  0  0  0  0  0  0  0  0
   -4.6175    0.4007    1.7199 C   0  0  0  0  0  0  0  0  0  0  0  0
   -5.9558   -0.0026    1.8806 C   0  0  0  0  0  0  0  0  0  0  0  0
   -6.5115   -0.7942    0.9153 C   0  0  0  0  0  0  0  0  0  0  0  0
   -5.7549   -1.1790   -0.1886 C   0  0  0  0  0  0  0  0  0  0  0  0
   -4.5076   -0.8019   -0.3356 N   0  0  0  0  0  0  0  0  0  0  0  0
   -3.9040   -0.0269    0.5717 C   0  0  0  0  0  0  0  0  0  0  0  0
   -2.5689    0.3773    0.4040 C   0  0  0  0  0  0  0  0  0  0  0  0
   -1.9747    1.1631    1.3482 C   0  0  0  0  0  0  0  0  0  0  0  0
   -0.6816    1.5467    1.1837 O   0  0  0  0  0  0  0  0  0  0  0  0
   -0.0127    1.0858    0.0080 C   0  0  0  0  0  0  0  0  0  0  0  0
   -7.9420   -1.2500    1.0451 C   0  0  0  0  0  0  0  0  0  0  0  0
   -8.0090   -2.7912    1.0295 C   0  0  0  0  0  0  0  0  0  0  0  0
   -9.3028   -3.1063    0.2369 C   0  0  0  0  0  0  0  0  0  0  0  0
   -9.2997   -2.0221   -0.8692 C   0  0  0  0  0  0  0  0  0  0  0  0
   -8.7625   -0.7611   -0.1613 C   0  0  0  0  0  0  0  0  0  0  0  0
   -3.7117    3.3339    4.2062 H   0  0  0  0  0  0  0  0  0  0  0  0
   -3.1692    1.8833    5.0835 H   0  0  0  0  0  0  0  0  0  0  0  0
   -2.2325    3.3928    5.1945 H   0  0  0  0  0  0  0  0  0  0  0  0
   -4.5188    1.5439    3.5495 H   0  0  0  0  0  0  0  0  0  0  0  0
   -6.5283    0.3053    2.7430 H   0  0  0  0  0  0  0  0  0  0  0  0
   -6.2073   -1.8048   -0.9437 H   0  0  0  0  0  0  0  0  0  0  0  0
   -2.0134    0.0638   -0.4675 H   0  0  0  0  0  0  0  0  0  0  0  0
    0.0021   -0.0041    0.0020 H   0  0  0  0  0  0  0  0  0  0  0  0
    1.0099    1.4631    0.0003 H   0  0  0  0  0  0  0  0  0  0  0  0
   -0.5399    1.4469   -0.8751 H   0  0  0  0  0  0  0  0  0  0  0  0
   -8.3732   -0.8669    1.9700 H   0  0  0  0  0  0  0  0  0  0  0  0
   -7.1392   -3.2057    0.5199 H   0  0  0  0  0  0  0  0  0  0  0  0
   -8.0786   -3.1803    2.0452 H   0  0  0  0  0  0  0  0  0  0  0  0
  -10.1805   -3.0045    0.8752 H   0  0  0  0  0  0  0  0  0  0  0  0
   -9.2551   -4.1039   -0.1999 H   0  0  0  0  0  0  0  0  0  0  0  0
  -10.3108   -1.8508   -1.2384 H   0  0  0  0  0  0  0  0  0  0  0  0
   -8.6384   -2.3120   -1.6857 H   0  0  0  0  0  0  0  0  0  0  0  0
   -9.5925   -0.1413    0.1782 H   0  0  0  0  0  0  0  0  0  0  0  0
   -8.1262   -0.1933   -0.8402 H   0  0  0  0  0  0  0  0  0  0  0  0
  1  2  1  0  0  0  0
  1 20  1  0  0  0  0
  1 21  1  0  0  0  0
  1 22  1  0  0  0  0
  2  3  1  0  0  0  0
  3 12  2  0  0  0  0
  3  4  1  0  0  0  0
  4  5  2  0  0  0  0
  4 23  1  0  0  0  0
  5 10  1  0  0  0  0
  5  6  1  0  0  0  0
  6  7  2  0  0  0  0
  6 24  1  0  0  0  0
  7  8  1  0  0  0  0
  7 15  1  0  0  0  0
  8  9  2  0  0  0  0
  8 25  1  0  0  0  0
  9 10  1  0  0  0  0
 10 11  2  0  0  0  0
 11 12  1  0  0  0  0
 11 26  1  0  0  0  0
 12 13  1  0  0  0  0
 13 14  1  0  0  0  0
 14 27  1  0  0  0  0
 14 28  1  0  0  0  0
 14 29  1  0  0  0  0
 15 19  1  0  0  0  0
 15 16  1  0  0  0  0
 15 30  1  0  0  0  0
 16 17  1  0  0  0  0
 16 31  1  0  0  0  0
 16 32  1  0  0  0  0
 17 18  1  0  0  0  0
 17 33  1  0  0  0  0
 17 34  1  0  0  0  0
 18 19  1  0  0  0  0
 18 35  1  0  0  0  0
 18 36  1  0  0  0  0
 19 37  1  0  0  0  0
 19 38  1  0  0  0  0
M  END
$$$$
ZINC03834045
  -OEChem-08230709403D

 47 49  0     0  0  0  0  0  0999 V2000
    4.7852   -0.1215   -0.0445 C   0  0  0  0  0  0  0  0  0  0  0  0
    4.7864    1.3075   -0.0371 O   0  0  0  0  0  0  0  0  0  0  0  0
    3.5757    1.9256   -0.0222 C   0  0  0  0  0  0  0  0  0  0  0  0
    2.4354    1.1764   -0.0149 C   0  0  0  0  0  0  0  0  0  0  0  0
    1.1846    1.8149    0.0005 C   0  0  0  0  0  0  0  0  0  0  0  0
   -0.0126    1.0758    0.0080 C   0  0  0  0  0  0  0  0  0  0  0  0
   -1.1943    1.7617    0.0172 C   0  0  0  0  0  0  0  0  0  0  0  0
   -1.1896    3.1542    0.0285 C   0  0  0  0  0  0  0  0  0  0  0  0
   -0.0723    3.8405    0.0220 N   0  0  0  0  0  0  0  0  0  0  0  0
    1.1179    3.2312    0.0083 C   0  0  0  0  0  0  0  0  0  0  0  0
    2.3105    3.9740    0.0011 C   0  0  0  0  0  0  0  0  0  0  0  0
    3.5119    3.3272   -0.0139 C   0  0  0  0  0  0  0  0  0  0  0  0
    4.6623    4.0504   -0.0204 O   0  0  0  0  0  0  0  0  0  0  0  0
    4.5339    5.4736   -0.0115 C   0  0  0  0  0  0  0  0  0  0  0  0
   -2.5015    1.0119    0.0192 C   0  0  0  0  0  0  0  0  0  0  0  0
   -2.9372    0.7504    1.4624 C   0  0  0  0  0  0  0  0  0  0  0  0
   -4.2643   -0.0109    1.4645 C   0  0  0  0  0  0  0  0  0  0  0  0
   -5.3600    0.8726    0.8647 C   0  0  0  0  0  0  0  0  0  0  0  0
   -6.6872    0.1113    0.8668 C   0  0  0  0  0  0  0  0  0  0  0  0
   -7.0603   -0.2592    2.3036 C   0  0  0  0  0  0  0  0  0  0  0  0
   -5.9646   -1.1427    2.9034 C   0  0  0  0  0  0  0  0  0  0  0  0
   -4.6374   -0.3814    2.9013 C   0  0  0  0  0  0  0  0  0  0  0  0
    4.2798   -0.4890    0.8486 H   0  0  0  0  0  0  0  0  0  0  0  0
    4.2625   -0.4799   -0.9313 H   0  0  0  0  0  0  0  0  0  0  0  0
    5.8125   -0.4856   -0.0563 H   0  0  0  0  0  0  0  0  0  0  0  0
    2.4944    0.0980   -0.0214 H   0  0  0  0  0  0  0  0  0  0  0  0
    0.0021   -0.0041    0.0020 H   0  0  0  0  0  0  0  0  0  0  0  0
   -2.1313    3.6830    0.0396 H   0  0  0  0  0  0  0  0  0  0  0  0
    2.2764    5.0534    0.0069 H   0  0  0  0  0  0  0  0  0  0  0  0
    3.9814    5.7942   -0.8947 H   0  0  0  0  0  0  0  0  0  0  0  0
    3.9977    5.7844    0.8852 H   0  0  0  0  0  0  0  0  0  0  0  0
    5.5248    5.9279   -0.0180 H   0  0  0  0  0  0  0  0  0  0  0  0
   -3.2619    1.6059   -0.4879 H   0  0  0  0  0  0  0  0  0  0  0  0
   -2.3763    0.0619   -0.5003 H   0  0  0  0  0  0  0  0  0  0  0  0
   -2.1768    0.1564    1.9695 H   0  0  0  0  0  0  0  0  0  0  0  0
   -3.0624    1.7004    1.9819 H   0  0  0  0  0  0  0  0  0  0  0  0
   -4.1634   -0.9187    0.8697 H   0  0  0  0  0  0  0  0  0  0  0  0
   -5.4609    1.7804    1.4595 H   0  0  0  0  0  0  0  0  0  0  0  0
   -5.0942    1.1366   -0.1589 H   0  0  0  0  0  0  0  0  0  0  0  0
   -6.5863   -0.7965    0.2720 H   0  0  0  0  0  0  0  0  0  0  0  0
   -7.4678    0.7408    0.4395 H   0  0  0  0  0  0  0  0  0  0  0  0
   -8.0058   -0.8016    2.3051 H   0  0  0  0  0  0  0  0  0  0  0  0
   -7.1612    0.6486    2.8984 H   0  0  0  0  0  0  0  0  0  0  0  0
   -5.8637   -2.0505    2.3086 H   0  0  0  0  0  0  0  0  0  0  0  0
   -6.2304   -1.4067    3.9270 H   0  0  0  0  0  0  0  0  0  0  0  0
   -3.8568   -1.0109    3.3286 H   0  0  0  0  0  0  0  0  0  0  0  0
   -4.7384    0.5264    3.4961 H   0  0  0  0  0  0  0  0  0  0  0  0
  1  2  1  0  0  0  0
  1 23  1  0  0  0  0
  1 24  1  0  0  0  0
  1 25  1  0  0  0  0
  2  3  1  0  0  0  0
  3 12  2  0  0  0  0
  3  4  1  0  0  0  0
  4  5  2  0  0  0  0
  4 26  1  0  0  0  0
  5 10  1  0  0  0  0
  5  6  1  0  0  0  0
  6  7  2  0  0  0  0
  6 27  1  0  0  0  0
  7  8  1  0  0  0  0
  7 15  1  0  0  0  0
  8  9  2  0  0  0  0
  8 28  1  0  0  0  0
  9 10  1  0  0  0  0
 10 11  2  0  0  0  0
 11 12  1  0  0  0  0
 11 29  1  0  0  0  0
 12 13  1  0  0  0  0
 13 14  1  0  0  0  0
 14 30  1  0  0  0  0
 14 31  1  0  0  0  0
 14 32  1  0  0  0  0
 15 16  1  0  0  0  0
 15 33  1  0  0  0  0
 15 34  1  0  0  0  0
 16 17  1  0  0  0  0
 16 35  1  0  0  0  0
 16 36  1  0  0  0  0
 17 22  1  0  0  0  0
 17 18  1  0  0  0  0
 17 37  1  0  0  0  0
 18 19  1  0  0  0  0
 18 38  1  0  0  0  0
 18 39  1  0  0  0  0
 19 20  1  0  0  0  0
 19 40  1  0  0  0  0
 19 41  1  0  0  0  0
 20 21  1  0  0  0  0
 20 42  1  0  0  0  0
 20 43  1  0  0  0  0
 21 22  1  0  0  0  0
 21 44  1  0  0  0  0
 21 45  1  0  0  0  0
 22 46  1  0  0  0  0
 22 47  1  0  0  0  0
M  END
$$$$
ZINC03834046
  -OEChem-08230709403D

 51 54  0     0  0  0  0  0  0999 V2000
   -0.1077   15.5990    0.4133 C   0  0  0  0  0  0  0  0  0  0  0  0
   -0.3608   14.1448    0.1096 C   0  0  0  0  0  0  0  0  0  0  0  0
   -1.4613   13.6370   -0.4994 C   0  0  0  0  0  0  0  0  0  0  0  0
   -1.3267   12.2908   -0.6026 N   0  0  0  0  0  0  0  0  0  0  0  0
   -1.9717   11.6864   -1.0020 H   0  0  0  0  0  0  0  0  0  0  0  0
   -0.1217   11.9251   -0.0417 C   0  0  0  0  0  0  0  0  0  0  0  0
    0.4958   13.0831    0.4062 C   0  0  0  0  0  0  0  0  0  0  0  0
    1.8379   13.1776    1.0850 C   0  0  0  0  0  0  0  0  0  0  0  0
    2.9305   13.3658    0.0306 C   0  0  0  0  0  0  0  0  0  0  0  0
    4.2727   13.4603    0.7094 C   0  0  0  0  0  0  0  0  0  0  0  0
    4.3476   13.3848    1.9130 O   0  0  0  0  0  0  0  0  0  0  0  0
    0.3913   10.6153    0.0534 C   0  0  0  0  0  0  0  0  0  0  0  0
   -0.4675    9.5486    0.2413 C   0  0  0  0  0  0  0  0  0  0  0  0
   -0.1324    8.1082    0.2121 C   0  0  0  0  0  0  0  0  0  0  0  0
    1.0553    7.4112    0.0031 C   0  0  0  0  0  0  0  0  0  0  0  0
    1.0578    6.0346    0.0356 C   0  0  0  0  0  0  0  0  0  0  0  0
   -0.1292    5.3402    0.2776 C   0  0  0  0  0  0  0  0  0  0  0  0
   -1.3195    6.0314    0.4813 C   0  0  0  0  0  0  0  0  0  0  0  0
   -1.3297    7.4193    0.4559 C   0  0  0  0  0  0  0  0  0  0  0  0
   -2.3575    8.3389    0.6291 N   0  0  0  0  0  0  0  0  0  0  0  0
   -1.9098    9.6005    0.5139 C   0  0  0  0  0  0  0  0  0  0  0  0
   -2.5826   10.6108    0.6170 O   0  0  0  0  0  0  0  0  0  0  0  0
   -0.1223    3.8575    0.3117 C   0  0  0  0  0  0  0  0  0  0  0  0
   -1.3043    3.1582    0.5524 C   0  0  0  0  0  0  0  0  0  0  0  0
   -1.2962    1.7783    0.5784 C   0  0  0  0  0  0  0  0  0  0  0  0
   -0.1165    1.0861    0.3763 C   0  0  0  0  0  0  0  0  0  0  0  0
    1.0644    1.7746    0.1356 C   0  0  0  0  0  0  0  0  0  0  0  0
    1.0648    3.1595    0.1029 C   0  0  0  0  0  0  0  0  0  0  0  0
    2.2207    1.0899   -0.0676 O   0  0  0  0  0  0  0  0  0  0  0  0
    2.1470   -0.3364   -0.0196 C   0  0  0  0  0  0  0  0  0  0  0  0
    0.4086   16.0614   -0.4280 H   0  0  0  0  0  0  0  0  0  0  0  0
   -1.0580   16.1062    0.5796 H   0  0  0  0  0  0  0  0  0  0  0  0
    0.5095   15.6812    1.3080 H   0  0  0  0  0  0  0  0  0  0  0  0
   -2.3060   14.2117   -0.8494 H   0  0  0  0  0  0  0  0  0  0  0  0
    1.8410   14.0276    1.7672 H   0  0  0  0  0  0  0  0  0  0  0  0
    2.0272   12.2617    1.6448 H   0  0  0  0  0  0  0  0  0  0  0  0
    2.9274   12.5158   -0.6516 H   0  0  0  0  0  0  0  0  0  0  0  0
    2.7412   14.2817   -0.5292 H   0  0  0  0  0  0  0  0  0  0  0  0
    1.4553   10.4455   -0.0205 H   0  0  0  0  0  0  0  0  0  0  0  0
    1.9727    7.9496   -0.1843 H   0  0  0  0  0  0  0  0  0  0  0  0
    1.9775    5.4921   -0.1265 H   0  0  0  0  0  0  0  0  0  0  0  0
   -2.2349    5.4881    0.6636 H   0  0  0  0  0  0  0  0  0  0  0  0
   -3.2801    8.1003    0.8100 H   0  0  0  0  0  0  0  0  0  0  0  0
   -2.2266    3.6961    0.7151 H   0  0  0  0  0  0  0  0  0  0  0  0
   -2.2132    1.2378    0.7613 H   0  0  0  0  0  0  0  0  0  0  0  0
   -0.1147    0.0064    0.4014 H   0  0  0  0  0  0  0  0  0  0  0  0
    1.9830    3.6965   -0.0843 H   0  0  0  0  0  0  0  0  0  0  0  0
    3.1366   -0.7575   -0.1974 H   0  0  0  0  0  0  0  0  0  0  0  0
    1.7902   -0.6489    0.9618 H   0  0  0  0  0  0  0  0  0  0  0  0
    1.4582   -0.6907   -0.7864 H   0  0  0  0  0  0  0  0  0  0  0  0
    5.3849   13.6284   -0.0231 O   0  5  0  0  0  0  0  0  0  0  0  0
  1  2  1  0  0  0  0
  1 31  1  0  0  0  0
  1 32  1  0  0  0  0
  1 33  1  0  0  0  0
  2  7  1  0  0  0  0
  2  3  2  0  0  0  0
  3  4  1  0  0  0  0
  3 34  1  0  0  0  0
  4  5  1  0  0  0  0
  4  6  1  0  0  0  0
  6  7  2  0  0  0  0
  6 12  1  0  0  0  0
  7  8  1  0  0  0  0
  8  9  1  0  0  0  0
  8 35  1  0  0  0  0
  8 36  1  0  0  0  0
  9 10  1  0  0  0  0
  9 37  1  0  0  0  0
  9 38  1  0  0  0  0
 10 11  2  0  0  0  0
 10 51  1  0  0  0  0
 12 13  2  0  0  0  0
 12 39  1  0  0  0  0
 13 21  1  0  0  0  0
 13 14  1  0  0  0  0
 14 19  2  0  0  0  0
 14 15  1  0  0  0  0
 15 16  2  0  0  0  0
 15 40  1  0  0  0  0
 16 17  1  0  0  0  0
 16 41  1  0  0  0  0
 17 18  2  0  0  0  0
 17 23  1  0  0  0  0
 18 19  1  0  0  0  0
 18 42  1  0  0  0  0
 19 20  1  0  0  0  0
 20 21  1  0  0  0  0
 20 43  1  0  0  0  0
 21 22  2  0  0  0  0
 23 28  2  0  0  0  0
 23 24  1  0  0  0  0
 24 25  2  0  0  0  0
 24 44  1  0  0  0  0
 25 26  1  0  0  0  0
 25 45  1  0  0  0  0
 26 27  2  0  0  0  0
 26 46  1  0  0  0  0
 27 28  1  0  0  0  0
 27 29  1  0  0  0  0
 28 47  1  0  0  0  0
 29 30  1  0  0  0  0
 30 48  1  0  0  0  0
 30 49  1  0  0  0  0
 30 50  1  0  0  0  0
M  CHG  1  51  -1
M  END
$$$$
ZINC03834047
  -OEChem-08230709403D

 44 46  0     0  0  0  0  0  0999 V2000
   -0.3077    1.0816    0.1611 C   0  0  0  0  0  0  0  0  0  0  0  0
   -0.8840    1.3962    1.5175 C   0  0  0  0  0  0  0  0  0  0  0  0
   -2.2389    1.4635    1.8485 C   0  0  0  0  0  0  0  0  0  0  0  0
   -2.3328    1.7697    3.1663 C   0  0  0  0  0  0  0  0  0  0  0  0
   -1.0830    1.9068    3.6773 N   0  0  0  0  0  0  0  0  0  0  0  0
   -0.8687    2.1280    4.5971 H   0  0  0  0  0  0  0  0  0  0  0  0
   -0.1692    1.6792    2.6709 C   0  0  0  0  0  0  0  0  0  0  0  0
    1.2355    1.7251    2.7926 C   0  0  0  0  0  0  0  0  0  0  0  0
    1.8243    2.6187    3.6659 C   0  0  0  0  0  0  0  0  0  0  0  0
    3.2541    2.7033    4.0392 C   0  0  0  0  0  0  0  0  0  0  0  0
    4.3805    1.9757    3.6676 C   0  0  0  0  0  0  0  0  0  0  0  0
    5.6113    2.2990    4.1994 C   0  0  0  0  0  0  0  0  0  0  0  0
    5.7248    3.3489    5.1033 C   0  0  0  0  0  0  0  0  0  0  0  0
    4.6099    4.0827    5.4722 C   0  0  0  0  0  0  0  0  0  0  0  0
    3.3623    3.7651    4.9480 C   0  0  0  0  0  0  0  0  0  0  0  0
    2.1046    4.3181    5.1552 N   0  0  0  0  0  0  0  0  0  0  0  0
    1.1661    3.6864    4.4300 C   0  0  0  0  0  0  0  0  0  0  0  0
   -0.0225    3.9527    4.4099 O   0  0  0  0  0  0  0  0  0  0  0  0
    6.9408    3.6625    5.6232 O   0  0  0  0  0  0  0  0  0  0  0  0
    8.0523    2.8725    5.1962 C   0  0  0  0  0  0  0  0  0  0  0  0
   -3.6170    1.9366    3.9370 C   0  0  0  0  0  0  0  0  0  0  0  0
   -3.3934    1.2329    0.9078 C   0  0  0  0  0  0  0  0  0  0  0  0
   -3.7732   -0.2491    0.9202 C   0  0  0  0  0  0  0  0  0  0  0  0
   -4.9277   -0.4798   -0.0205 C   0  0  0  0  0  0  0  0  0  0  0  0
   -5.3985    0.4463   -0.6375 O   0  0  0  0  0  0  0  0  0  0  0  0
   -0.1563    0.0060    0.0712 H   0  0  0  0  0  0  0  0  0  0  0  0
    0.6472    1.5940    0.0443 H   0  0  0  0  0  0  0  0  0  0  0  0
   -0.9973    1.4174   -0.6134 H   0  0  0  0  0  0  0  0  0  0  0  0
    1.8505    1.0615    2.2028 H   0  0  0  0  0  0  0  0  0  0  0  0
    4.2912    1.1602    2.9653 H   0  0  0  0  0  0  0  0  0  0  0  0
    6.4875    1.7363    3.9131 H   0  0  0  0  0  0  0  0  0  0  0  0
    4.7080    4.8954    6.1766 H   0  0  0  0  0  0  0  0  0  0  0  0
    1.9267    5.0651    5.7479 H   0  0  0  0  0  0  0  0  0  0  0  0
    8.9595    3.2272    5.6853 H   0  0  0  0  0  0  0  0  0  0  0  0
    7.8803    1.8295    5.4620 H   0  0  0  0  0  0  0  0  0  0  0  0
    8.1650    2.9581    4.1154 H   0  0  0  0  0  0  0  0  0  0  0  0
   -3.9389    2.9767    3.8856 H   0  0  0  0  0  0  0  0  0  0  0  0
   -4.3860    1.2964    3.5047 H   0  0  0  0  0  0  0  0  0  0  0  0
   -3.4548    1.6574    4.9781 H   0  0  0  0  0  0  0  0  0  0  0  0
   -4.2477    1.8295    1.2279 H   0  0  0  0  0  0  0  0  0  0  0  0
   -3.1038    1.5254   -0.1015 H   0  0  0  0  0  0  0  0  0  0  0  0
   -2.9190   -0.8458    0.6001 H   0  0  0  0  0  0  0  0  0  0  0  0
   -4.0628   -0.5416    1.9295 H   0  0  0  0  0  0  0  0  0  0  0  0
   -5.4331   -1.7139   -0.1729 O   0  5  0  0  0  0  0  0  0  0  0  0
  1  2  1  0  0  0  0
  1 26  1  0  0  0  0
  1 27  1  0  0  0  0
  1 28  1  0  0  0  0
  2  7  2  0  0  0  0
  2  3  1  0  0  0  0
  3  4  2  0  0  0  0
  3 22  1  0  0  0  0
  4  5  1  0  0  0  0
  4 21  1  0  0  0  0
  5  6  1  0  0  0  0
  5  7  1  0  0  0  0
  7  8  1  0  0  0  0
  8  9  2  0  0  0  0
  8 29  1  0  0  0  0
  9 17  1  0  0  0  0
  9 10  1  0  0  0  0
 10 15  2  0  0  0  0
 10 11  1  0  0  0  0
 11 12  2  0  0  0  0
 11 30  1  0  0  0  0
 12 13  1  0  0  0  0
 12 31  1  0  0  0  0
 13 14  2  0  0  0  0
 13 19  1  0  0  0  0
 14 15  1  0  0  0  0
 14 32  1  0  0  0  0
 15 16  1  0  0  0  0
 16 17  1  0  0  0  0
 16 33  1  0  0  0  0
 17 18  2  0  0  0  0
 19 20  1  0  0  0  0
 20 34  1  0  0  0  0
 20 35  1  0  0  0  0
 20 36  1  0  0  0  0
 21 37  1  0  0  0  0
 21 38  1  0  0  0  0
 21 39  1  0  0  0  0
 22 23  1  0  0  0  0
 22 40  1  0  0  0  0
 22 41  1  0  0  0  0
 23 24  1  0  0  0  0
 23 42  1  0  0  0  0
 23 43  1  0  0  0  0
 24 25  2  0  0  0  0
 24 44  1  0  0  0  0
M  CHG  1  44  -1
M  END
$$$$
ZINC03834050
  -OEChem-08230709403D

 36 39  0     0  0  0  0  0  0999 V2000
   -1.7334    3.7173    2.0231 C   0  0  0  0  0  0  0  0  0  0  0  0
   -0.7274    3.7837    2.9659 C   0  0  0  0  0  0  0  0  0  0  0  0
    0.5715    4.0942    2.5798 C   0  0  0  0  0  0  0  0  0  0  0  0
    0.8395    4.3423    1.2263 C   0  0  0  0  0  0  0  0  0  0  0  0
   -0.1817    4.2782    0.2843 C   0  0  0  0  0  0  0  0  0  0  0  0
   -1.4662    3.9682    0.6870 C   0  0  0  0  0  0  0  0  0  0  0  0
   -2.8598    3.8786   -0.5880 Br  0  0  0  0  0  0  0  0  0  0  0  0
    2.2862    4.6396    1.1356 C   0  0  0  0  0  0  0  0  0  0  0  0
    3.0115    4.9465    0.0002 C   0  0  0  0  0  0  0  0  0  0  0  0
    4.3945    5.2048    0.0955 C   0  0  0  0  0  0  0  0  0  0  0  0
    4.9912    6.4538    0.2013 C   0  0  0  0  0  0  0  0  0  0  0  0
    6.3636    6.2428    0.2715 C   0  0  0  0  0  0  0  0  0  0  0  0
    6.5903    4.9020    0.2005 C   0  0  0  0  0  0  0  0  0  0  0  0
    5.4029    4.2628    0.0945 N   0  0  0  0  0  0  0  0  0  0  0  0
    5.2806    3.3028    0.0285 H   0  0  0  0  0  0  0  0  0  0  0  0
    7.9657    4.2788    0.2366 C   0  0  0  0  0  0  0  0  0  0  0  0
    9.0003    5.3716   -0.0570 C   0  0  0  0  0  0  0  0  0  0  0  0
    8.7389    6.5799    0.8462 C   0  0  0  0  0  0  0  0  0  0  0  0
    7.4501    7.2814    0.4007 C   0  0  0  0  0  0  0  0  0  0  0  0
    2.7843    4.5384    2.5134 C   0  0  0  0  0  0  0  0  0  0  0  0
    3.9353    4.7122    2.8729 O   0  0  0  0  0  0  0  0  0  0  0  0
    1.7484    4.2202    3.3081 N   0  0  0  0  0  0  0  0  0  0  0  0
   -2.7391    3.4711    2.3304 H   0  0  0  0  0  0  0  0  0  0  0  0
   -0.9490    3.5898    4.0050 H   0  0  0  0  0  0  0  0  0  0  0  0
    0.0285    4.4704   -0.7575 H   0  0  0  0  0  0  0  0  0  0  0  0
    2.5192    4.9884   -0.9601 H   0  0  0  0  0  0  0  0  0  0  0  0
    4.4854    7.4077    0.2265 H   0  0  0  0  0  0  0  0  0  0  0  0
    8.1502    3.8538    1.2233 H   0  0  0  0  0  0  0  0  0  0  0  0
    8.0341    3.4964   -0.5192 H   0  0  0  0  0  0  0  0  0  0  0  0
    8.9219    5.6749   -1.1010 H   0  0  0  0  0  0  0  0  0  0  0  0
   10.0011    4.9846    0.1347 H   0  0  0  0  0  0  0  0  0  0  0  0
    9.5750    7.2754    0.7736 H   0  0  0  0  0  0  0  0  0  0  0  0
    8.6327    6.2459    1.8784 H   0  0  0  0  0  0  0  0  0  0  0  0
    7.6102    7.7668   -0.5620 H   0  0  0  0  0  0  0  0  0  0  0  0
    7.1606    8.0251    1.1431 H   0  0  0  0  0  0  0  0  0  0  0  0
    1.8138    4.0947    4.2677 H   0  0  0  0  0  0  0  0  0  0  0  0
  1  6  2  0  0  0  0
  1  2  1  0  0  0  0
  1 23  1  0  0  0  0
  2  3  2  0  0  0  0
  2 24  1  0  0  0  0
  3 22  1  0  0  0  0
  3  4  1  0  0  0  0
  4  5  2  0  0  0  0
  4  8  1  0  0  0  0
  5  6  1  0  0  0  0
  5 25  1  0  0  0  0
  6  7  1  0  0  0  0
  8  9  2  0  0  0  0
  8 20  1  0  0  0  0
  9 10  1  0  0  0  0
  9 26  1  0  0  0  0
 10 14  1  0  0  0  0
 10 11  2  0  0  0  0
 11 12  1  0  0  0  0
 11 27  1  0  0  0  0
 12 19  1  0  0  0  0
 12 13  2  0  0  0  0
 13 14  1  0  0  0  0
 13 16  1  0  0  0  0
 14 15  1  0  0  0  0
 16 17  1  0  0  0  0
 16 28  1  0  0  0  0
 16 29  1  0  0  0  0
 17 18  1  0  0  0  0
 17 30  1  0  0  0  0
 17 31  1  0  0  0  0
 18 19  1  0  0  0  0
 18 32  1  0  0  0  0
 18 33  1  0  0  0  0
 19 34  1  0  0  0  0
 19 35  1  0  0  0  0
 20 21  2  0  0  0  0
 20 22  1  0  0  0  0
 22 36  1  0  0  0  0
M  END
$$$$
ZINC04617831
  -OEChem-08230709403D

 58 62  0     0  0  0  0  0  0999 V2000
   -7.0635   -9.2112   -0.0249 C   0  0  0  0  0  0  0  0  0  0  0  0
   -6.5564   -8.1002    0.7171 O   0  0  0  0  0  0  0  0  0  0  0  0
   -7.1394   -7.8420    1.9166 C   0  0  0  0  0  0  0  0  0  0  0  0
   -8.1743   -8.6422    2.3734 C   0  0  0  0  0  0  0  0  0  0  0  0
   -8.7703   -8.3751    3.5913 C   0  0  0  0  0  0  0  0  0  0  0  0
   -8.3357   -7.3121    4.3635 C   0  0  0  0  0  0  0  0  0  0  0  0
   -7.3029   -6.5098    3.9232 C   0  0  0  0  0  0  0  0  0  0  0  0
   -6.6943   -6.7703    2.6970 C   0  0  0  0  0  0  0  0  0  0  0  0
   -5.5843   -5.9116    2.2192 C   0  0  0  0  0  0  0  0  0  0  0  0
   -4.3982   -6.4960    1.7699 C   0  0  0  0  0  0  0  0  0  0  0  0
   -3.3652   -5.7015    1.3249 C   0  0  0  0  0  0  0  0  0  0  0  0
   -3.5083   -4.3161    1.3184 C   0  0  0  0  0  0  0  0  0  0  0  0
   -4.6935   -3.7197    1.7738 C   0  0  0  0  0  0  0  0  0  0  0  0
   -5.7302   -4.5275    2.2203 C   0  0  0  0  0  0  0  0  0  0  0  0
   -4.5776   -2.3384    1.6707 N   0  0  0  0  0  0  0  0  0  0  0  0
   -3.3790   -1.9834    1.1778 C   0  0  0  0  0  0  0  0  0  0  0  0
   -2.9965   -0.8443    0.9776 O   0  0  0  0  0  0  0  0  0  0  0  0
   -2.6110   -3.2089    0.9217 C   0  0  0  0  0  0  0  0  0  0  0  0
   -1.3291   -3.3068    0.4142 C   0  0  0  0  0  0  0  0  0  0  0  0
   -0.5540   -2.1437    0.2277 C   0  0  0  0  0  0  0  0  0  0  0  0
    0.3715   -1.9272   -0.7841 C   0  0  0  0  0  0  0  0  0  0  0  0
    0.8977   -0.6555   -0.5869 C   0  0  0  0  0  0  0  0  0  0  0  0
    0.3062   -0.1185    0.5157 C   0  0  0  0  0  0  0  0  0  0  0  0
   -0.5769   -1.0122    1.0172 N   0  0  0  0  0  0  0  0  0  0  0  0
   -1.1328   -0.8800    1.8010 H   0  0  0  0  0  0  0  0  0  0  0  0
    0.6203    1.2582    1.0519 C   0  0  0  0  0  0  0  0  0  0  0  0
    1.9448    1.7264    0.4380 C   0  0  0  0  0  0  0  0  0  0  0  0
    1.8979    1.5449   -1.0811 C   0  0  0  0  0  0  0  0  0  0  0  0
    1.9398    0.0497   -1.4191 C   0  0  0  0  0  0  0  0  0  0  0  0
    0.7365   -2.8878   -1.8864 C   0  0  0  0  0  0  0  0  0  0  0  0
    1.8987   -3.7715   -1.4289 C   0  0  0  0  0  0  0  0  0  0  0  0
    2.2636   -4.7321   -2.5312 C   0  0  0  0  0  0  0  0  0  0  0  0
    1.6564   -4.7120   -3.5756 O   0  0  0  0  0  0  0  0  0  0  0  0
   -8.1200   -9.0521   -0.2409 H   0  0  0  0  0  0  0  0  0  0  0  0
   -6.5117   -9.3058   -0.9601 H   0  0  0  0  0  0  0  0  0  0  0  0
   -6.9457  -10.1232    0.5603 H   0  0  0  0  0  0  0  0  0  0  0  0
   -8.5182   -9.4731    1.7752 H   0  0  0  0  0  0  0  0  0  0  0  0
   -9.5794   -8.9987    3.9420 H   0  0  0  0  0  0  0  0  0  0  0  0
   -8.8067   -7.1095    5.3140 H   0  0  0  0  0  0  0  0  0  0  0  0
   -6.9668   -5.6806    4.5282 H   0  0  0  0  0  0  0  0  0  0  0  0
   -4.2912   -7.5707    1.7711 H   0  0  0  0  0  0  0  0  0  0  0  0
   -2.4475   -6.1522    0.9768 H   0  0  0  0  0  0  0  0  0  0  0  0
   -6.6501   -4.0819    2.5690 H   0  0  0  0  0  0  0  0  0  0  0  0
   -5.2733   -1.7109    1.9219 H   0  0  0  0  0  0  0  0  0  0  0  0
   -0.9211   -4.2740    0.1605 H   0  0  0  0  0  0  0  0  0  0  0  0
   -0.1763    1.9496    0.7772 H   0  0  0  0  0  0  0  0  0  0  0  0
    0.7131    1.2169    2.1372 H   0  0  0  0  0  0  0  0  0  0  0  0
    2.1022    2.7789    0.6734 H   0  0  0  0  0  0  0  0  0  0  0  0
    2.7641    1.1362    0.8486 H   0  0  0  0  0  0  0  0  0  0  0  0
    2.7550    2.0439   -1.5334 H   0  0  0  0  0  0  0  0  0  0  0  0
    0.9773    1.9798   -1.4703 H   0  0  0  0  0  0  0  0  0  0  0  0
    2.9268   -0.3513   -1.1885 H   0  0  0  0  0  0  0  0  0  0  0  0
    1.7230   -0.0936   -2.4777 H   0  0  0  0  0  0  0  0  0  0  0  0
   -0.1243   -3.5133   -2.1230 H   0  0  0  0  0  0  0  0  0  0  0  0
    1.0332   -2.3276   -2.7731 H   0  0  0  0  0  0  0  0  0  0  0  0
    2.7594   -3.1460   -1.1923 H   0  0  0  0  0  0  0  0  0  0  0  0
    1.6019   -4.3317   -0.5422 H   0  0  0  0  0  0  0  0  0  0  0  0
    3.2632   -5.6100   -2.3527 O   0  5  0  0  0  0  0  0  0  0  0  0
  1  2  1  0  0  0  0
  1 34  1  0  0  0  0
  1 35  1  0  0  0  0
  1 36  1  0  0  0  0
  2  3  1  0  0  0  0
  3  8  2  0  0  0  0
  3  4  1  0  0  0  0
  4  5  2  0  0  0  0
  4 37  1  0  0  0  0
  5  6  1  0  0  0  0
  5 38  1  0  0  0  0
  6  7  2  0  0  0  0
  6 39  1  0  0  0  0
  7  8  1  0  0  0  0
  7 40  1  0  0  0  0
  8  9  1  0  0  0  0
  9 14  2  0  0  0  0
  9 10  1  0  0  0  0
 10 11  2  0  0  0  0
 10 41  1  0  0  0  0
 11 12  1  0  0  0  0
 11 42  1  0  0  0  0
 12 18  1  0  0  0  0
 12 13  2  0  0  0  0
 13 14  1  0  0  0  0
 13 15  1  0  0  0  0
 14 43  1  0  0  0  0
 15 16  1  0  0  0  0
 15 44  1  0  0  0  0
 16 17  2  0  0  0  0
 16 18  1  0  0  0  0
 18 19  2  0  0  0  0
 19 20  1  0  0  0  0
 19 45  1  0  0  0  0
 20 24  1  0  0  0  0
 20 21  2  0  0  0  0
 21 22  1  0  0  0  0
 21 30  1  0  0  0  0
 22 29  1  0  0  0  0
 22 23  2  0  0  0  0
 23 24  1  0  0  0  0
 23 26  1  0  0  0  0
 24 25  1  0  0  0  0
 26 27  1  0  0  0  0
 26 46  1  0  0  0  0
 26 47  1  0  0  0  0
 27 28  1  0  0  0  0
 27 48  1  0  0  0  0
 27 49  1  0  0  0  0
 28 29  1  0  0  0  0
 28 50  1  0  0  0  0
 28 51  1  0  0  0  0
 29 52  1  0  0  0  0
 29 53  1  0  0  0  0
 30 31  1  0  0  0  0
 30 54  1  0  0  0  0
 30 55  1  0  0  0  0
 31 32  1  0  0  0  0
 31 56  1  0  0  0  0
 31 57  1  0  0  0  0
 32 33  2  0  0  0  0
 32 58  1  0  0  0  0
M  CHG  1  58  -1
M  END
$$$$
ZINC04628819
  -OEChem-08230709403D

 37 39  0     1  0  0  0  0  0999 V2000
    0.0021   -0.0041    0.0020 C   0  0  0  0  0  0  0  0  0  0  0  0
   -0.0167    1.3786    0.0096 C   0  0  0  0  0  0  0  0  0  0  0  0
    1.1691    2.0868    0.0021 C   0  0  0  0  0  0  0  0  0  0  0  0
    2.3808    1.4090   -0.0135 C   0  0  0  0  0  0  0  0  0  0  0  0
    2.3963    0.0206   -0.0207 C   0  0  0  0  0  0  0  0  0  0  0  0
    1.2072   -0.6820   -0.0126 C   0  0  0  0  0  0  0  0  0  0  0  0
    3.5854    2.1246   -0.0221 N   0  0  0  0  0  0  0  0  0  0  0  0
    4.6488    1.9267    0.8061 C   0  0  0  0  0  0  0  0  0  0  0  0
    5.5998    2.7679    0.5210 N   0  0  0  0  0  0  0  0  0  0  0  0
    5.2137    3.5641   -0.5093 C   0  0  0  0  0  0  0  0  0  0  0  0
    3.9191    3.1605   -0.8776 C   0  0  0  0  0  0  0  0  0  0  0  0
    3.2575    3.8075   -1.9112 C   0  0  0  0  0  0  0  0  0  0  0  0
    3.8768    4.8387   -2.5844 C   0  0  0  0  0  0  0  0  0  0  0  0
    5.1611    5.2407   -2.2293 C   0  0  0  0  0  0  0  0  0  0  0  0
    5.8307    4.6109   -1.1989 C   0  0  0  0  0  0  0  0  0  0  0  0
    5.7602    6.2596   -2.9014 O   0  0  0  0  0  0  0  0  0  0  0  0
    5.0133    6.8686   -3.9565 C   0  0  0  0  0  0  0  0  0  0  0  0
    5.8442    7.9859   -4.5906 C   0  0  2  0  0  0  0  0  0  0  0  0
    6.1578    8.6884   -3.8185 H   0  0  0  0  0  0  0  0  0  0  0  0
    5.0002    8.7192   -5.6350 C   0  0  0  0  0  0  0  0  0  0  0  0
    5.7350    9.8343   -6.1437 O   0  0  0  0  0  0  0  0  0  0  0  0
    6.9975    7.4235   -5.2196 O   0  0  0  0  0  0  0  0  0  0  0  0
   -0.9264   -0.5556    0.0079 H   0  0  0  0  0  0  0  0  0  0  0  0
   -0.9595    1.9053    0.0169 H   0  0  0  0  0  0  0  0  0  0  0  0
    1.1538    3.1667    0.0077 H   0  0  0  0  0  0  0  0  0  0  0  0
    3.3373   -0.5094   -0.0328 H   0  0  0  0  0  0  0  0  0  0  0  0
    1.2187   -1.7619   -0.0182 H   0  0  0  0  0  0  0  0  0  0  0  0
    4.6957    1.1807    1.5857 H   0  0  0  0  0  0  0  0  0  0  0  0
    2.2606    3.5006   -2.1911 H   0  0  0  0  0  0  0  0  0  0  0  0
    3.3622    5.3379   -3.3921 H   0  0  0  0  0  0  0  0  0  0  0  0
    6.8272    4.9264   -0.9270 H   0  0  0  0  0  0  0  0  0  0  0  0
    4.7746    6.1199   -4.7118 H   0  0  0  0  0  0  0  0  0  0  0  0
    4.0901    7.2859   -3.5542 H   0  0  0  0  0  0  0  0  0  0  0  0
    4.7611    8.0385   -6.4520 H   0  0  0  0  0  0  0  0  0  0  0  0
    4.0776    9.0719   -5.1741 H   0  0  0  0  0  0  0  0  0  0  0  0
    5.2598   10.3466   -6.8121 H   0  0  0  0  0  0  0  0  0  0  0  0
    6.7933    6.7877   -5.9190 H   0  0  0  0  0  0  0  0  0  0  0  0
  1  6  2  0  0  0  0
  1  2  1  0  0  0  0
  1 23  1  0  0  0  0
  2  3  2  0  0  0  0
  2 24  1  0  0  0  0
  3  4  1  0  0  0  0
  3 25  1  0  0  0  0
  4  5  2  0  0  0  0
  4  7  1  0  0  0  0
  5  6  1  0  0  0  0
  5 26  1  0  0  0  0
  6 27  1  0  0  0  0
  7 11  1  0  0  0  0
  7  8  1  0  0  0  0
  8  9  2  0  0  0  0
  8 28  1  0  0  0  0
  9 10  1  0  0  0  0
 10 15  2  0  0  0  0
 10 11  1  0  0  0  0
 11 12  2  0  0  0  0
 12 13  1  0  0  0  0
 12 29  1  0  0  0  0
 13 14  2  0  0  0  0
 13 30  1  0  0  0  0
 14 15  1  0  0  0  0
 14 16  1  0  0  0  0
 15 31  1  0  0  0  0
 16 17  1  0  0  0  0
 17 18  1  0  0  0  0
 17 32  1  0  0  0  0
 17 33  1  0  0  0  0
 18 19  1  0  0  0  0
 18 20  1  0  0  0  0
 18 22  1  0  0  0  0
 20 21  1  0  0  0  0
 20 34  1  0  0  0  0
 20 35  1  0  0  0  0
 21 36  1  0  0  0  0
 22 37  1  0  0  0  0
M  END
$$$$
ZINC04628820
  -OEChem-08230709403D

 34 37  0     1  0  0  0  0  0999 V2000
   -0.0544    4.1634    0.0250 C   0  0  0  0  0  0  0  0  0  0  0  0
    1.1531    3.4898    0.0098 C   0  0  0  0  0  0  0  0  0  0  0  0
    1.1751    2.1088    0.0022 C   0  0  0  0  0  0  0  0  0  0  0  0
   -0.0169    1.3969    0.0097 C   0  0  0  0  0  0  0  0  0  0  0  0
   -1.2279    2.0762    0.0191 C   0  0  0  0  0  0  0  0  0  0  0  0
   -1.2433    3.4572    0.0330 C   0  0  0  0  0  0  0  0  0  0  0  0
    0.0021   -0.0041    0.0020 N   0  0  0  0  0  0  0  0  0  0  0  0
    0.7102   -0.7980   -0.8489 C   0  0  0  0  0  0  0  0  0  0  0  0
    0.4950   -2.0515   -0.5739 N   0  0  0  0  0  0  0  0  0  0  0  0
   -0.3658   -2.1500    0.4721 C   0  0  0  0  0  0  0  0  0  0  0  0
   -0.6906   -0.8395    0.8615 C   0  0  0  0  0  0  0  0  0  0  0  0
   -1.5572   -0.6251    1.9234 C   0  0  0  0  0  0  0  0  0  0  0  0
   -2.0965   -1.6994    2.5980 C   0  0  0  0  0  0  0  0  0  0  0  0
   -1.7775   -3.0004    2.2202 C   0  0  0  0  0  0  0  0  0  0  0  0
   -0.9229   -3.2308    1.1602 C   0  0  0  0  0  0  0  0  0  0  0  0
   -2.3166   -4.0511    2.8942 O   0  0  0  0  0  0  0  0  0  0  0  0
   -3.1991   -3.7443    3.9754 C   0  0  0  0  0  0  0  0  0  0  0  0
   -3.7020   -5.0437    4.6077 C   0  0  1  0  0  0  0  0  0  0  0  0
   -3.0224   -5.8936    4.5460 H   0  0  0  0  0  0  0  0  0  0  0  0
   -4.5977   -4.9352    5.8433 C   0  0  0  0  0  0  0  0  0  0  0  0
   -5.1054   -5.3084    4.5588 O   0  0  0  0  0  0  0  0  0  0  0  0
   -0.0691    5.2433    0.0310 H   0  0  0  0  0  0  0  0  0  0  0  0
    2.0800    4.0441    0.0043 H   0  0  0  0  0  0  0  0  0  0  0  0
    2.1186    1.5833   -0.0093 H   0  0  0  0  0  0  0  0  0  0  0  0
   -2.1568    1.5252    0.0205 H   0  0  0  0  0  0  0  0  0  0  0  0
   -2.1848    3.9861    0.0449 H   0  0  0  0  0  0  0  0  0  0  0  0
    1.3558   -0.4394   -1.6370 H   0  0  0  0  0  0  0  0  0  0  0  0
   -1.8086    0.3821    2.2214 H   0  0  0  0  0  0  0  0  0  0  0  0
   -2.7710   -1.5306    3.4244 H   0  0  0  0  0  0  0  0  0  0  0  0
   -0.6769   -4.2421    0.8720 H   0  0  0  0  0  0  0  0  0  0  0  0
   -2.6663   -3.1583    4.7243 H   0  0  0  0  0  0  0  0  0  0  0  0
   -4.0469   -3.1706    3.6009 H   0  0  0  0  0  0  0  0  0  0  0  0
   -4.5134   -5.7137    6.6016 H   0  0  0  0  0  0  0  0  0  0  0  0
   -4.8341   -3.9375    6.2133 H   0  0  0  0  0  0  0  0  0  0  0  0
  1  6  2  0  0  0  0
  1  2  1  0  0  0  0
  1 22  1  0  0  0  0
  2  3  2  0  0  0  0
  2 23  1  0  0  0  0
  3  4  1  0  0  0  0
  3 24  1  0  0  0  0
  4  5  2  0  0  0  0
  4  7  1  0  0  0  0
  5  6  1  0  0  0  0
  5 25  1  0  0  0  0
  6 26  1  0  0  0  0
  7 11  1  0  0  0  0
  7  8  1  0  0  0  0
  8  9  2  0  0  0  0
  8 27  1  0  0  0  0
  9 10  1  0  0  0  0
 10 15  2  0  0  0  0
 10 11  1  0  0  0  0
 11 12  2  0  0  0  0
 12 13  1  0  0  0  0
 12 28  1  0  0  0  0
 13 14  2  0  0  0  0
 13 29  1  0  0  0  0
 14 15  1  0  0  0  0
 14 16  1  0  0  0  0
 15 30  1  0  0  0  0
 16 17  1  0  0  0  0
 17 18  1  0  0  0  0
 17 31  1  0  0  0  0
 17 32  1  0  0  0  0
 18 19  1  0  0  0  0
 18 21  1  0  0  0  0
 18 20  1  0  0  0  0
 20 21  1  0  0  0  0
 20 33  1  0  0  0  0
 20 34  1  0  0  0  0
M  END
$$$$
ZINC04632533
  -OEChem-08230709403D

 54 58  0     0  0  0  0  0  0999 V2000
   -9.2884   -8.4274    1.6457 C   0  0  0  0  0  0  0  0  0  0  0  0
   -8.0219   -8.9239    1.8967 C   0  0  0  0  0  0  0  0  0  0  0  0
   -6.9132   -8.1268    1.6966 C   0  0  0  0  0  0  0  0  0  0  0  0
   -7.0715   -6.8191    1.2407 C   0  0  0  0  0  0  0  0  0  0  0  0
   -8.3505   -6.3224    0.9949 C   0  0  0  0  0  0  0  0  0  0  0  0
   -9.4515   -7.1304    1.1930 C   0  0  0  0  0  0  0  0  0  0  0  0
   -5.8840   -5.9577    1.0237 C   0  0  0  0  0  0  0  0  0  0  0  0
   -4.6061   -6.4602    1.2770 C   0  0  0  0  0  0  0  0  0  0  0  0
   -3.5011   -5.6632    1.0767 C   0  0  0  0  0  0  0  0  0  0  0  0
   -3.6607   -4.3586    0.6158 C   0  0  0  0  0  0  0  0  0  0  0  0
   -4.9409   -3.8431    0.3643 C   0  0  0  0  0  0  0  0  0  0  0  0
   -6.0494   -4.6532    0.5684 C   0  0  0  0  0  0  0  0  0  0  0  0
   -4.8251   -2.5296   -0.0754 N   0  0  0  0  0  0  0  0  0  0  0  0
   -3.5395   -2.1416   -0.1244 C   0  0  0  0  0  0  0  0  0  0  0  0
   -3.1354   -1.0461   -0.4718 O   0  0  0  0  0  0  0  0  0  0  0  0
   -2.7067   -3.2693    0.3135 C   0  0  0  0  0  0  0  0  0  0  0  0
   -1.3286   -3.3067    0.4154 C   0  0  0  0  0  0  0  0  0  0  0  0
   -0.5759   -2.1289    0.2307 C   0  0  0  0  0  0  0  0  0  0  0  0
    0.6870   -2.0422   -0.3394 C   0  0  0  0  0  0  0  0  0  0  0  0
    1.0486   -0.7000   -0.3217 C   0  0  0  0  0  0  0  0  0  0  0  0
    0.0312    0.0056    0.2453 C   0  0  0  0  0  0  0  0  0  0  0  0
   -0.9598   -0.8511    0.5832 N   0  0  0  0  0  0  0  0  0  0  0  0
   -1.7996   -0.6079    1.0033 H   0  0  0  0  0  0  0  0  0  0  0  0
    0.0543    1.5028    0.4430 C   0  0  0  0  0  0  0  0  0  0  0  0
    1.5027    1.9868    0.3072 C   0  0  0  0  0  0  0  0  0  0  0  0
    2.1117    1.4267   -0.9804 C   0  0  0  0  0  0  0  0  0  0  0  0
    2.3289   -0.0838   -0.8286 C   0  0  0  0  0  0  0  0  0  0  0  0
    1.5092   -3.1856   -0.8759 C   0  0  0  0  0  0  0  0  0  0  0  0
    2.3870   -3.7512    0.2422 C   0  0  0  0  0  0  0  0  0  0  0  0
    3.2092   -4.8946   -0.2943 C   0  0  0  0  0  0  0  0  0  0  0  0
    3.1039   -5.2232   -1.4522 O   0  0  0  0  0  0  0  0  0  0  0  0
  -10.1532   -9.0549    1.8033 H   0  0  0  0  0  0  0  0  0  0  0  0
   -7.9005   -9.9371    2.2503 H   0  0  0  0  0  0  0  0  0  0  0  0
   -5.9249   -8.5156    1.8926 H   0  0  0  0  0  0  0  0  0  0  0  0
   -8.4792   -5.3084    0.6461 H   0  0  0  0  0  0  0  0  0  0  0  0
  -10.4426   -6.7482    0.9983 H   0  0  0  0  0  0  0  0  0  0  0  0
   -4.4844   -7.4735    1.6303 H   0  0  0  0  0  0  0  0  0  0  0  0
   -2.5121   -6.0507    1.2722 H   0  0  0  0  0  0  0  0  0  0  0  0
   -7.0406   -4.2709    0.3740 H   0  0  0  0  0  0  0  0  0  0  0  0
   -5.5763   -1.9653   -0.3165 H   0  0  0  0  0  0  0  0  0  0  0  0
   -0.8285   -4.2380    0.6365 H   0  0  0  0  0  0  0  0  0  0  0  0
   -0.5655    1.9826   -0.3145 H   0  0  0  0  0  0  0  0  0  0  0  0
   -0.3230    1.7478    1.4358 H   0  0  0  0  0  0  0  0  0  0  0  0
    1.5199    3.0761    0.2733 H   0  0  0  0  0  0  0  0  0  0  0  0
    2.0828    1.6411    1.1629 H   0  0  0  0  0  0  0  0  0  0  0  0
    3.0677    1.9138   -1.1722 H   0  0  0  0  0  0  0  0  0  0  0  0
    1.4345    1.6145   -1.8136 H   0  0  0  0  0  0  0  0  0  0  0  0
    3.1328   -0.2693   -0.1163 H   0  0  0  0  0  0  0  0  0  0  0  0
    2.5870   -0.5165   -1.7951 H   0  0  0  0  0  0  0  0  0  0  0  0
    0.8462   -3.9668   -1.2478 H   0  0  0  0  0  0  0  0  0  0  0  0
    2.1415   -2.8284   -1.6888 H   0  0  0  0  0  0  0  0  0  0  0  0
    3.0500   -2.9700    0.6141 H   0  0  0  0  0  0  0  0  0  0  0  0
    1.7547   -4.1084    1.0551 H   0  0  0  0  0  0  0  0  0  0  0  0
    4.0586   -5.5478    0.5142 O   0  5  0  0  0  0  0  0  0  0  0  0
  1  6  2  0  0  0  0
  1  2  1  0  0  0  0
  1 32  1  0  0  0  0
  2  3  2  0  0  0  0
  2 33  1  0  0  0  0
  3  4  1  0  0  0  0
  3 34  1  0  0  0  0
  4  5  2  0  0  0  0
  4  7  1  0  0  0  0
  5  6  1  0  0  0  0
  5 35  1  0  0  0  0
  6 36  1  0  0  0  0
  7 12  2  0  0  0  0
  7  8  1  0  0  0  0
  8  9  2  0  0  0  0
  8 37  1  0  0  0  0
  9 10  1  0  0  0  0
  9 38  1  0  0  0  0
 10 16  1  0  0  0  0
 10 11  2  0  0  0  0
 11 12  1  0  0  0  0
 11 13  1  0  0  0  0
 12 39  1  0  0  0  0
 13 14  1  0  0  0  0
 13 40  1  0  0  0  0
 14 15  2  0  0  0  0
 14 16  1  0  0  0  0
 16 17  2  0  0  0  0
 17 18  1  0  0  0  0
 17 41  1  0  0  0  0
 18 22  1  0  0  0  0
 18 19  2  0  0  0  0
 19 20  1  0  0  0  0
 19 28  1  0  0  0  0
 20 27  1  0  0  0  0
 20 21  2  0  0  0  0
 21 22  1  0  0  0  0
 21 24  1  0  0  0  0
 22 23  1  0  0  0  0
 24 25  1  0  0  0  0
 24 42  1  0  0  0  0
 24 43  1  0  0  0  0
 25 26  1  0  0  0  0
 25 44  1  0  0  0  0
 25 45  1  0  0  0  0
 26 27  1  0  0  0  0
 26 46  1  0  0  0  0
 26 47  1  0  0  0  0
 27 48  1  0  0  0  0
 27 49  1  0  0  0  0
 28 29  1  0  0  0  0
 28 50  1  0  0  0  0
 28 51  1  0  0  0  0
 29 30  1  0  0  0  0
 29 52  1  0  0  0  0
 29 53  1  0  0  0  0
 30 31  2  0  0  0  0
 30 54  1  0  0  0  0
M  CHG  1  54  -1
M  END
$$$$
ZINC04632535
  -OEChem-08230709403D

 58 62  0     0  0  0  0  0  0999 V2000
    2.1484   -0.3360   -0.0204 C   0  0  0  0  0  0  0  0  0  0  0  0
    2.2218    1.0903   -0.0683 O   0  0  0  0  0  0  0  0  0  0  0  0
    1.0654    1.7748    0.1347 C   0  0  0  0  0  0  0  0  0  0  0  0
   -0.1158    1.0859    0.3751 C   0  0  0  0  0  0  0  0  0  0  0  0
   -1.2953    1.7777    0.5769 C   0  0  0  0  0  0  0  0  0  0  0  0
   -1.3036    3.1580    0.5511 C   0  0  0  0  0  0  0  0  0  0  0  0
   -0.1220    3.8573    0.3108 C   0  0  0  0  0  0  0  0  0  0  0  0
    1.0656    3.1593    0.1022 C   0  0  0  0  0  0  0  0  0  0  0  0
   -0.1289    5.3400    0.2778 C   0  0  0  0  0  0  0  0  0  0  0  0
    1.0582    6.0346    0.0371 C   0  0  0  0  0  0  0  0  0  0  0  0
    1.0557    7.4113    0.0053 C   0  0  0  0  0  0  0  0  0  0  0  0
   -0.1323    8.1080    0.2136 C   0  0  0  0  0  0  0  0  0  0  0  0
   -1.3298    7.4189    0.4561 C   0  0  0  0  0  0  0  0  0  0  0  0
   -1.3194    6.0311    0.4813 C   0  0  0  0  0  0  0  0  0  0  0  0
   -2.3577    8.3383    0.6296 N   0  0  0  0  0  0  0  0  0  0  0  0
   -1.9098    9.6001    0.5159 C   0  0  0  0  0  0  0  0  0  0  0  0
   -2.5827   10.6103    0.6197 O   0  0  0  0  0  0  0  0  0  0  0  0
   -0.4674    9.5484    0.2440 C   0  0  0  0  0  0  0  0  0  0  0  0
    0.3915   10.6153    0.0572 C   0  0  0  0  0  0  0  0  0  0  0  0
   -0.1216   11.9252   -0.0369 C   0  0  0  0  0  0  0  0  0  0  0  0
    0.4917   13.0825    0.4235 C   0  0  0  0  0  0  0  0  0  0  0  0
   -0.3593   14.1397    0.1223 C   0  0  0  0  0  0  0  0  0  0  0  0
   -1.4622   13.6332   -0.4953 C   0  0  0  0  0  0  0  0  0  0  0  0
   -1.3280   12.2910   -0.5982 N   0  0  0  0  0  0  0  0  0  0  0  0
   -1.9719   11.6868   -0.9997 H   0  0  0  0  0  0  0  0  0  0  0  0
   -2.6225   14.4764   -0.9686 C   0  0  0  0  0  0  0  0  0  0  0  0
   -2.5391   15.8442   -0.2811 C   0  0  0  0  0  0  0  0  0  0  0  0
   -1.1277   16.4144   -0.4454 C   0  0  0  0  0  0  0  0  0  0  0  0
   -0.1468   15.6050    0.4115 C   0  0  0  0  0  0  0  0  0  0  0  0
    1.8272   13.1753    1.1156 C   0  0  0  0  0  0  0  0  0  0  0  0
    2.9295   13.3708    0.0727 C   0  0  0  0  0  0  0  0  0  0  0  0
    4.2650   13.4636    0.7647 C   0  0  0  0  0  0  0  0  0  0  0  0
    4.3286   13.3819    1.9685 O   0  0  0  0  0  0  0  0  0  0  0  0
    1.7914   -0.6487    0.9608 H   0  0  0  0  0  0  0  0  0  0  0  0
    1.4598   -0.6903   -0.7875 H   0  0  0  0  0  0  0  0  0  0  0  0
    3.1380   -0.7569   -0.1981 H   0  0  0  0  0  0  0  0  0  0  0  0
   -0.1139    0.0062    0.4001 H   0  0  0  0  0  0  0  0  0  0  0  0
   -2.2123    1.2370    0.7591 H   0  0  0  0  0  0  0  0  0  0  0  0
   -2.2261    3.6957    0.7132 H   0  0  0  0  0  0  0  0  0  0  0  0
    1.9839    3.6964   -0.0840 H   0  0  0  0  0  0  0  0  0  0  0  0
    1.9781    5.4923   -0.1244 H   0  0  0  0  0  0  0  0  0  0  0  0
    1.9731    7.9498   -0.1811 H   0  0  0  0  0  0  0  0  0  0  0  0
   -2.2348    5.4875    0.6629 H   0  0  0  0  0  0  0  0  0  0  0  0
   -3.2805    8.0996    0.8093 H   0  0  0  0  0  0  0  0  0  0  0  0
    1.4555   10.4455   -0.0165 H   0  0  0  0  0  0  0  0  0  0  0  0
   -2.5661   14.6048   -2.0495 H   0  0  0  0  0  0  0  0  0  0  0  0
   -3.5615   13.9894   -0.7054 H   0  0  0  0  0  0  0  0  0  0  0  0
   -3.2604   16.5235   -0.7354 H   0  0  0  0  0  0  0  0  0  0  0  0
   -2.7640   15.7319    0.7795 H   0  0  0  0  0  0  0  0  0  0  0  0
   -0.8310   16.3540   -1.4925 H   0  0  0  0  0  0  0  0  0  0  0  0
   -1.1170   17.4560   -0.1242 H   0  0  0  0  0  0  0  0  0  0  0  0
    0.8766   15.8840    0.1606 H   0  0  0  0  0  0  0  0  0  0  0  0
   -0.3330   15.8016    1.4674 H   0  0  0  0  0  0  0  0  0  0  0  0
    1.8225   14.0218    1.8023 H   0  0  0  0  0  0  0  0  0  0  0  0
    2.0126   12.2568    1.6723 H   0  0  0  0  0  0  0  0  0  0  0  0
    2.9342   12.5243   -0.6140 H   0  0  0  0  0  0  0  0  0  0  0  0
    2.7442   14.2893   -0.4841 H   0  0  0  0  0  0  0  0  0  0  0  0
    5.3839   13.6372    0.0437 O   0  5  0  0  0  0  0  0  0  0  0  0
  1  2  1  0  0  0  0
  1 34  1  0  0  0  0
  1 35  1  0  0  0  0
  1 36  1  0  0  0  0
  2  3  1  0  0  0  0
  3  8  2  0  0  0  0
  3  4  1  0  0  0  0
  4  5  2  0  0  0  0
  4 37  1  0  0  0  0
  5  6  1  0  0  0  0
  5 38  1  0  0  0  0
  6  7  2  0  0  0  0
  6 39  1  0  0  0  0
  7  8  1  0  0  0  0
  7  9  1  0  0  0  0
  8 40  1  0  0  0  0
  9 14  2  0  0  0  0
  9 10  1  0  0  0  0
 10 11  2  0  0  0  0
 10 41  1  0  0  0  0
 11 12  1  0  0  0  0
 11 42  1  0  0  0  0
 12 18  1  0  0  0  0
 12 13  2  0  0  0  0
 13 14  1  0  0  0  0
 13 15  1  0  0  0  0
 14 43  1  0  0  0  0
 15 16  1  0  0  0  0
 15 44  1  0  0  0  0
 16 17  2  0  0  0  0
 16 18  1  0  0  0  0
 18 19  2  0  0  0  0
 19 20  1  0  0  0  0
 19 45  1  0  0  0  0
 20 24  1  0  0  0  0
 20 21  2  0  0  0  0
 21 22  1  0  0  0  0
 21 30  1  0  0  0  0
 22 29  1  0  0  0  0
 22 23  2  0  0  0  0
 23 24  1  0  0  0  0
 23 26  1  0  0  0  0
 24 25  1  0  0  0  0
 26 27  1  0  0  0  0
 26 46  1  0  0  0  0
 26 47  1  0  0  0  0
 27 28  1  0  0  0  0
 27 48  1  0  0  0  0
 27 49  1  0  0  0  0
 28 29  1  0  0  0  0
 28 50  1  0  0  0  0
 28 51  1  0  0  0  0
 29 52  1  0  0  0  0
 29 53  1  0  0  0  0
 30 31  1  0  0  0  0
 30 54  1  0  0  0  0
 30 55  1  0  0  0  0
 31 32  1  0  0  0  0
 31 56  1  0  0  0  0
 31 57  1  0  0  0  0
 32 33  2  0  0  0  0
 32 58  1  0  0  0  0
M  CHG  1  58  -1
M  END
$$$$
