ZINC00005543
  -OEChem-08230709403D

 27 29  0     0  0  0  0  0  0999 V2000
    0.7697    3.3014    0.0117 C   0  0  0  0  0  0  0  0  0  0  0  0
   -0.5179    3.7249    0.0255 C   0  0  0  0  0  0  0  0  0  0  0  0
   -1.4145    2.1811    0.0194 S   0  0  0  0  0  0  0  0  0  0  0  0
   -0.0126    1.0758    0.0080 C   0  0  0  0  0  0  0  0  0  0  0  0
    1.0286    1.9437    0.0027 C   0  0  0  0  0  0  0  0  0  0  0  0
    2.4474    1.4358   -0.0133 C   0  0  0  0  0  0  0  0  0  0  0  0
    2.9068    1.2733   -1.4393 C   0  0  0  0  0  0  0  0  0  0  0  0
    2.8727    0.1336   -2.1589 C   0  0  0  0  0  0  0  0  0  0  0  0
    3.3651    0.3689   -3.4060 N   0  0  0  0  0  0  0  0  0  0  0  0
    3.4457   -0.2881   -4.1150 H   0  0  0  0  0  0  0  0  0  0  0  0
    3.7368    1.6940   -3.4927 C   0  0  0  0  0  0  0  0  0  0  0  0
    3.4547    2.2864   -2.2563 C   0  0  0  0  0  0  0  0  0  0  0  0
    3.7251    3.5933   -2.0683 N   0  0  0  0  0  0  0  0  0  0  0  0
    4.2491    4.3186   -3.0277 C   0  0  0  0  0  0  0  0  0  0  0  0
    4.5426    3.7908   -4.2509 N   0  0  0  0  0  0  0  0  0  0  0  0
    4.9412    4.3723   -4.9602 H   0  0  0  0  0  0  0  0  0  0  0  0
    4.2983    2.4876   -4.5103 C   0  0  0  0  0  0  0  0  0  0  0  0
    4.5588    2.0096   -5.6019 O   0  0  0  0  0  0  0  0  0  0  0  0
    4.5090    5.6472   -2.7940 N   0  0  0  0  0  0  0  0  0  0  0  0
    1.5810    4.0142    0.0081 H   0  0  0  0  0  0  0  0  0  0  0  0
   -0.9018    4.7344    0.0340 H   0  0  0  0  0  0  0  0  0  0  0  0
    0.0021   -0.0041    0.0020 H   0  0  0  0  0  0  0  0  0  0  0  0
    3.0943    2.1489    0.4978 H   0  0  0  0  0  0  0  0  0  0  0  0
    2.4944    0.4730    0.4955 H   0  0  0  0  0  0  0  0  0  0  0  0
    2.5086   -0.8184   -1.8018 H   0  0  0  0  0  0  0  0  0  0  0  0
    4.3053    6.0365   -1.9293 H   0  0  0  0  0  0  0  0  0  0  0  0
    4.8963    6.1959   -3.4939 H   0  0  0  0  0  0  0  0  0  0  0  0
  1  5  1  0  0  0  0
  1  2  2  0  0  0  0
  1 20  1  0  0  0  0
  2  3  1  0  0  0  0
  2 21  1  0  0  0  0
  3  4  1  0  0  0  0
  4  5  2  0  0  0  0
  4 22  1  0  0  0  0
  5  6  1  0  0  0  0
  6  7  1  0  0  0  0
  6 23  1  0  0  0  0
  6 24  1  0  0  0  0
  7 12  1  0  0  0  0
  7  8  2  0  0  0  0
  8  9  1  0  0  0  0
  8 25  1  0  0  0  0
  9 10  1  0  0  0  0
  9 11  1  0  0  0  0
 11 17  1  0  0  0  0
 11 12  2  0  0  0  0
 12 13  1  0  0  0  0
 13 14  2  0  0  0  0
 14 15  1  0  0  0  0
 14 19  1  0  0  0  0
 15 16  1  0  0  0  0
 15 17  1  0  0  0  0
 17 18  2  0  0  0  0
 19 26  1  0  0  0  0
 19 27  1  0  0  0  0
M  END
$$$$
ZINC00005543
  -OEChem-08230709403D

 27 29  0     0  0  0  0  0  0999 V2000
    0.7697    3.3014    0.0117 C   0  0  0  0  0  0  0  0  0  0  0  0
   -0.5179    3.7249    0.0255 C   0  0  0  0  0  0  0  0  0  0  0  0
   -1.4145    2.1811    0.0194 S   0  0  0  0  0  0  0  0  0  0  0  0
   -0.0126    1.0758    0.0080 C   0  0  0  0  0  0  0  0  0  0  0  0
    1.0286    1.9437    0.0027 C   0  0  0  0  0  0  0  0  0  0  0  0
    2.4474    1.4358   -0.0133 C   0  0  0  0  0  0  0  0  0  0  0  0
    2.9068    1.2733   -1.4393 C   0  0  0  0  0  0  0  0  0  0  0  0
    2.8727    0.1336   -2.1589 C   0  0  0  0  0  0  0  0  0  0  0  0
    3.3651    0.3689   -3.4060 N   0  0  0  0  0  0  0  0  0  0  0  0
    3.4457   -0.2881   -4.1150 H   0  0  0  0  0  0  0  0  0  0  0  0
    3.7368    1.6940   -3.4927 C   0  0  0  0  0  0  0  0  0  0  0  0
    3.4547    2.2864   -2.2563 C   0  0  0  0  0  0  0  0  0  0  0  0
    3.7251    3.5933   -2.0683 N   0  0  0  0  0  0  0  0  0  0  0  0
    4.2491    4.3186   -3.0277 C   0  0  0  0  0  0  0  0  0  0  0  0
    4.5426    3.7908   -4.2509 N   0  0  0  0  0  0  0  0  0  0  0  0
    4.9412    4.3723   -4.9602 H   0  0  0  0  0  0  0  0  0  0  0  0
    4.2983    2.4876   -4.5103 C   0  0  0  0  0  0  0  0  0  0  0  0
    4.5588    2.0096   -5.6019 O   0  0  0  0  0  0  0  0  0  0  0  0
    4.5090    5.6472   -2.7940 N   0  0  0  0  0  0  0  0  0  0  0  0
    1.5810    4.0142    0.0081 H   0  0  0  0  0  0  0  0  0  0  0  0
   -0.9018    4.7344    0.0340 H   0  0  0  0  0  0  0  0  0  0  0  0
    0.0021   -0.0041    0.0020 H   0  0  0  0  0  0  0  0  0  0  0  0
    3.0943    2.1489    0.4978 H   0  0  0  0  0  0  0  0  0  0  0  0
    2.4944    0.4730    0.4955 H   0  0  0  0  0  0  0  0  0  0  0  0
    2.5086   -0.8184   -1.8018 H   0  0  0  0  0  0  0  0  0  0  0  0
    4.3053    6.0365   -1.9293 H   0  0  0  0  0  0  0  0  0  0  0  0
    4.8963    6.1959   -3.4939 H   0  0  0  0  0  0  0  0  0  0  0  0
  1  5  1  0  0  0  0
  1  2  2  0  0  0  0
  1 20  1  0  0  0  0
  2  3  1  0  0  0  0
  2 21  1  0  0  0  0
  3  4  1  0  0  0  0
  4  5  2  0  0  0  0
  4 22  1  0  0  0  0
  5  6  1  0  0  0  0
  6  7  1  0  0  0  0
  6 23  1  0  0  0  0
  6 24  1  0  0  0  0
  7 12  1  0  0  0  0
  7  8  2  0  0  0  0
  8  9  1  0  0  0  0
  8 25  1  0  0  0  0
  9 10  1  0  0  0  0
  9 11  1  0  0  0  0
 11 17  1  0  0  0  0
 11 12  2  0  0  0  0
 12 13  1  0  0  0  0
 13 14  2  0  0  0  0
 14 15  1  0  0  0  0
 14 19  1  0  0  0  0
 15 16  1  0  0  0  0
 15 17  1  0  0  0  0
 17 18  2  0  0  0  0
 19 26  1  0  0  0  0
 19 27  1  0  0  0  0
M  END
$$$$
ZINC00005610
  -OEChem-08230709403D

 29 31  0     0  0  0  0  0  0999 V2000
   -0.0837    3.7947    0.0223 C   0  0  0  0  0  0  0  0  0  0  0  0
    1.1498    3.1612    0.0076 C   0  0  0  0  0  0  0  0  0  0  0  0
    1.1797    1.7752    0.0003 C   0  0  0  0  0  0  0  0  0  0  0  0
   -0.0126    1.0758    0.0080 C   0  0  0  0  0  0  0  0  0  0  0  0
   -1.1675    1.7118    0.0169 N   0  0  0  0  0  0  0  0  0  0  0  0
   -1.2339    3.0290    0.0292 C   0  0  0  0  0  0  0  0  0  0  0  0
    2.4953    1.0405   -0.0162 C   0  0  0  0  0  0  0  0  0  0  0  0
    2.9203    0.8032   -1.4424 C   0  0  0  0  0  0  0  0  0  0  0  0
    2.6925   -0.3136   -2.1628 C   0  0  0  0  0  0  0  0  0  0  0  0
    3.2208   -0.1660   -3.4087 N   0  0  0  0  0  0  0  0  0  0  0  0
    3.1903   -0.8275   -4.1175 H   0  0  0  0  0  0  0  0  0  0  0  0
    3.8059    1.0795   -3.4971 C   0  0  0  0  0  0  0  0  0  0  0  0
    3.6220    1.7134   -2.2627 C   0  0  0  0  0  0  0  0  0  0  0  0
    4.1100    2.9555   -2.0742 N   0  0  0  0  0  0  0  0  0  0  0  0
    4.7453    3.5837   -3.0348 C   0  0  0  0  0  0  0  0  0  0  0  0
    4.9462    3.0138   -4.2578 N   0  0  0  0  0  0  0  0  0  0  0  0
    5.4344    3.5210   -4.9680 H   0  0  0  0  0  0  0  0  0  0  0  0
    4.4899    1.7687   -4.5158 C   0  0  0  0  0  0  0  0  0  0  0  0
    4.6670    1.2532   -5.6071 O   0  0  0  0  0  0  0  0  0  0  0  0
    5.2220    4.8510   -2.8024 N   0  0  0  0  0  0  0  0  0  0  0  0
   -0.1446    4.8730    0.0280 H   0  0  0  0  0  0  0  0  0  0  0  0
    2.0654    3.7339    0.0016 H   0  0  0  0  0  0  0  0  0  0  0  0
    0.0021   -0.0041    0.0020 H   0  0  0  0  0  0  0  0  0  0  0  0
   -2.1984    3.5147    0.0407 H   0  0  0  0  0  0  0  0  0  0  0  0
    3.2514    1.6375    0.4937 H   0  0  0  0  0  0  0  0  0  0  0  0
    2.3834    0.0835    0.4936 H   0  0  0  0  0  0  0  0  0  0  0  0
    2.1713   -1.1898   -1.8065 H   0  0  0  0  0  0  0  0  0  0  0  0
    5.6940    5.3277   -3.5030 H   0  0  0  0  0  0  0  0  0  0  0  0
    5.0867    5.2691   -1.9376 H   0  0  0  0  0  0  0  0  0  0  0  0
  1  6  2  0  0  0  0
  1  2  1  0  0  0  0
  1 21  1  0  0  0  0
  2  3  2  0  0  0  0
  2 22  1  0  0  0  0
  3  4  1  0  0  0  0
  3  7  1  0  0  0  0
  4  5  2  0  0  0  0
  4 23  1  0  0  0  0
  5  6  1  0  0  0  0
  6 24  1  0  0  0  0
  7  8  1  0  0  0  0
  7 25  1  0  0  0  0
  7 26  1  0  0  0  0
  8 13  1  0  0  0  0
  8  9  2  0  0  0  0
  9 10  1  0  0  0  0
  9 27  1  0  0  0  0
 10 11  1  0  0  0  0
 10 12  1  0  0  0  0
 12 18  1  0  0  0  0
 12 13  2  0  0  0  0
 13 14  1  0  0  0  0
 14 15  2  0  0  0  0
 15 16  1  0  0  0  0
 15 20  1  0  0  0  0
 16 17  1  0  0  0  0
 16 18  1  0  0  0  0
 18 19  2  0  0  0  0
 20 28  1  0  0  0  0
 20 29  1  0  0  0  0
M  END
$$$$
ZINC00005610
  -OEChem-08230709403D

 29 31  0     0  0  0  0  0  0999 V2000
   -0.0837    3.7947    0.0223 C   0  0  0  0  0  0  0  0  0  0  0  0
    1.1498    3.1612    0.0076 C   0  0  0  0  0  0  0  0  0  0  0  0
    1.1797    1.7752    0.0003 C   0  0  0  0  0  0  0  0  0  0  0  0
   -0.0126    1.0758    0.0080 C   0  0  0  0  0  0  0  0  0  0  0  0
   -1.1675    1.7118    0.0169 N   0  0  0  0  0  0  0  0  0  0  0  0
   -1.2339    3.0290    0.0292 C   0  0  0  0  0  0  0  0  0  0  0  0
    2.4953    1.0405   -0.0162 C   0  0  0  0  0  0  0  0  0  0  0  0
    2.9203    0.8032   -1.4424 C   0  0  0  0  0  0  0  0  0  0  0  0
    2.6925   -0.3136   -2.1628 C   0  0  0  0  0  0  0  0  0  0  0  0
    3.2208   -0.1660   -3.4087 N   0  0  0  0  0  0  0  0  0  0  0  0
    3.1903   -0.8275   -4.1175 H   0  0  0  0  0  0  0  0  0  0  0  0
    3.8059    1.0795   -3.4971 C   0  0  0  0  0  0  0  0  0  0  0  0
    3.6220    1.7134   -2.2627 C   0  0  0  0  0  0  0  0  0  0  0  0
    4.1100    2.9555   -2.0742 N   0  0  0  0  0  0  0  0  0  0  0  0
    4.7453    3.5837   -3.0348 C   0  0  0  0  0  0  0  0  0  0  0  0
    4.9462    3.0138   -4.2578 N   0  0  0  0  0  0  0  0  0  0  0  0
    5.4344    3.5210   -4.9680 H   0  0  0  0  0  0  0  0  0  0  0  0
    4.4899    1.7687   -4.5158 C   0  0  0  0  0  0  0  0  0  0  0  0
    4.6670    1.2532   -5.6071 O   0  0  0  0  0  0  0  0  0  0  0  0
    5.2220    4.8510   -2.8024 N   0  0  0  0  0  0  0  0  0  0  0  0
   -0.1446    4.8730    0.0280 H   0  0  0  0  0  0  0  0  0  0  0  0
    2.0654    3.7339    0.0016 H   0  0  0  0  0  0  0  0  0  0  0  0
    0.0021   -0.0041    0.0020 H   0  0  0  0  0  0  0  0  0  0  0  0
   -2.1984    3.5147    0.0407 H   0  0  0  0  0  0  0  0  0  0  0  0
    3.2514    1.6375    0.4937 H   0  0  0  0  0  0  0  0  0  0  0  0
    2.3834    0.0835    0.4936 H   0  0  0  0  0  0  0  0  0  0  0  0
    2.1713   -1.1898   -1.8065 H   0  0  0  0  0  0  0  0  0  0  0  0
    5.6940    5.3277   -3.5030 H   0  0  0  0  0  0  0  0  0  0  0  0
    5.0867    5.2691   -1.9376 H   0  0  0  0  0  0  0  0  0  0  0  0
  1  6  2  0  0  0  0
  1  2  1  0  0  0  0
  1 21  1  0  0  0  0
  2  3  2  0  0  0  0
  2 22  1  0  0  0  0
  3  4  1  0  0  0  0
  3  7  1  0  0  0  0
  4  5  2  0  0  0  0
  4 23  1  0  0  0  0
  5  6  1  0  0  0  0
  6 24  1  0  0  0  0
  7  8  1  0  0  0  0
  7 25  1  0  0  0  0
  7 26  1  0  0  0  0
  8 13  1  0  0  0  0
  8  9  2  0  0  0  0
  9 10  1  0  0  0  0
  9 27  1  0  0  0  0
 10 11  1  0  0  0  0
 10 12  1  0  0  0  0
 12 18  1  0  0  0  0
 12 13  2  0  0  0  0
 13 14  1  0  0  0  0
 14 15  2  0  0  0  0
 15 16  1  0  0  0  0
 15 20  1  0  0  0  0
 16 17  1  0  0  0  0
 16 18  1  0  0  0  0
 18 19  2  0  0  0  0
 20 28  1  0  0  0  0
 20 29  1  0  0  0  0
M  END
$$$$
ZINC00005684
  -OEChem-08230709403D

 34 36  0     1  0  0  0  0  0999 V2000
   -2.9921   -1.4254    3.2943 C   0  0  0  0  0  0  0  0  0  0  0  0
   -2.2443   -1.6646    2.1563 C   0  0  0  0  0  0  0  0  0  0  0  0
   -2.0199   -0.6459    1.2494 C   0  0  0  0  0  0  0  0  0  0  0  0
   -2.5387    0.6140    1.4824 C   0  0  0  0  0  0  0  0  0  0  0  0
   -3.2910    0.8527    2.6184 C   0  0  0  0  0  0  0  0  0  0  0  0
   -3.5153   -0.1675    3.5259 C   0  0  0  0  0  0  0  0  0  0  0  0
   -3.9484    2.4330    2.9084 Cl  0  0  0  0  0  0  0  0  0  0  0  0
   -1.2042   -0.9073    0.0094 C   0  0  1  0  0  0  0  0  0  0  0  0
   -0.8791   -1.9477    0.0010 H   0  0  0  0  0  0  0  0  0  0  0  0
   -2.0571   -0.6294   -1.2300 C   0  0  0  0  0  0  0  0  0  0  0  0
   -1.3016   -0.9985   -2.4383 C   0  0  0  0  0  0  0  0  0  0  0  0
   -0.7186   -1.2834   -3.3707 N   0  0  0  0  0  0  0  0  0  0  0  0
    0.0021   -0.0041    0.0020 C   0  0  0  0  0  0  0  0  0  0  0  0
   -0.0162    1.3441    0.0094 C   0  0  0  0  0  0  0  0  0  0  0  0
    1.2608    1.8157   -0.0002 N   0  0  0  0  0  0  0  0  0  0  0  0
    1.5178    2.7510    0.0019 H   0  0  0  0  0  0  0  0  0  0  0  0
    2.1286    0.7442   -0.0143 C   0  0  0  0  0  0  0  0  0  0  0  0
    1.3514   -0.4199   -0.0131 C   0  0  0  0  0  0  0  0  0  0  0  0
    1.9575   -1.6237   -0.0254 N   0  0  0  0  0  0  0  0  0  0  0  0
    3.2657   -1.7202   -0.0388 C   0  0  0  0  0  0  0  0  0  0  0  0
    4.0690   -0.6176   -0.0401 N   0  0  0  0  0  0  0  0  0  0  0  0
    5.0629   -0.7272   -0.0499 H   0  0  0  0  0  0  0  0  0  0  0  0
    3.5305    0.6214   -0.0283 C   0  0  0  0  0  0  0  0  0  0  0  0
    4.2433    1.6113   -0.0302 O   0  0  0  0  0  0  0  0  0  0  0  0
    3.8430   -2.9667   -0.0515 N   0  0  0  0  0  0  0  0  0  0  0  0
   -3.1671   -2.2218    4.0026 H   0  0  0  0  0  0  0  0  0  0  0  0
   -1.8356   -2.6478    1.9757 H   0  0  0  0  0  0  0  0  0  0  0  0
   -2.3598    1.4109    0.7757 H   0  0  0  0  0  0  0  0  0  0  0  0
   -4.0989    0.0194    4.4153 H   0  0  0  0  0  0  0  0  0  0  0  0
   -2.9731   -1.2181   -1.1803 H   0  0  0  0  0  0  0  0  0  0  0  0
   -2.3081    0.4306   -1.2681 H   0  0  0  0  0  0  0  0  0  0  0  0
   -0.9065    1.9555    0.0171 H   0  0  0  0  0  0  0  0  0  0  0  0
    4.8091   -3.0537   -0.0612 H   0  0  0  0  0  0  0  0  0  0  0  0
    3.2846   -3.7598   -0.0507 H   0  0  0  0  0  0  0  0  0  0  0  0
  1  6  2  0  0  0  0
  1  2  1  0  0  0  0
  1 26  1  0  0  0  0
  2  3  2  0  0  0  0
  2 27  1  0  0  0  0
  3  4  1  0  0  0  0
  3  8  1  0  0  0  0
  4  5  2  0  0  0  0
  4 28  1  0  0  0  0
  5  6  1  0  0  0  0
  5  7  1  0  0  0  0
  6 29  1  0  0  0  0
  8  9  1  0  0  0  0
  8 10  1  0  0  0  0
  8 13  1  0  0  0  0
 10 11  1  0  0  0  0
 10 30  1  0  0  0  0
 10 31  1  0  0  0  0
 11 12  3  0  0  0  0
 13 18  1  0  0  0  0
 13 14  2  0  0  0  0
 14 15  1  0  0  0  0
 14 32  1  0  0  0  0
 15 16  1  0  0  0  0
 15 17  1  0  0  0  0
 17 23  1  0  0  0  0
 17 18  2  0  0  0  0
 18 19  1  0  0  0  0
 19 20  2  0  0  0  0
 20 21  1  0  0  0  0
 20 25  1  0  0  0  0
 21 22  1  0  0  0  0
 21 23  1  0  0  0  0
 23 24  2  0  0  0  0
 25 33  1  0  0  0  0
 25 34  1  0  0  0  0
M  END
$$$$
ZINC00005684
  -OEChem-08230709403D

 34 36  0     1  0  0  0  0  0999 V2000
   -2.9921   -1.4254    3.2943 C   0  0  0  0  0  0  0  0  0  0  0  0
   -2.2443   -1.6646    2.1563 C   0  0  0  0  0  0  0  0  0  0  0  0
   -2.0199   -0.6459    1.2494 C   0  0  0  0  0  0  0  0  0  0  0  0
   -2.5387    0.6140    1.4824 C   0  0  0  0  0  0  0  0  0  0  0  0
   -3.2910    0.8527    2.6184 C   0  0  0  0  0  0  0  0  0  0  0  0
   -3.5153   -0.1675    3.5259 C   0  0  0  0  0  0  0  0  0  0  0  0
   -3.9484    2.4330    2.9084 Cl  0  0  0  0  0  0  0  0  0  0  0  0
   -1.2042   -0.9073    0.0094 C   0  0  1  0  0  0  0  0  0  0  0  0
   -0.8791   -1.9477    0.0010 H   0  0  0  0  0  0  0  0  0  0  0  0
   -2.0571   -0.6294   -1.2300 C   0  0  0  0  0  0  0  0  0  0  0  0
   -1.3016   -0.9985   -2.4383 C   0  0  0  0  0  0  0  0  0  0  0  0
   -0.7186   -1.2834   -3.3707 N   0  0  0  0  0  0  0  0  0  0  0  0
    0.0021   -0.0041    0.0020 C   0  0  0  0  0  0  0  0  0  0  0  0
   -0.0162    1.3441    0.0094 C   0  0  0  0  0  0  0  0  0  0  0  0
    1.2608    1.8157   -0.0002 N   0  0  0  0  0  0  0  0  0  0  0  0
    1.5178    2.7510    0.0019 H   0  0  0  0  0  0  0  0  0  0  0  0
    2.1286    0.7442   -0.0143 C   0  0  0  0  0  0  0  0  0  0  0  0
    1.3514   -0.4199   -0.0131 C   0  0  0  0  0  0  0  0  0  0  0  0
    1.9575   -1.6237   -0.0254 N   0  0  0  0  0  0  0  0  0  0  0  0
    3.2657   -1.7202   -0.0388 C   0  0  0  0  0  0  0  0  0  0  0  0
    4.0690   -0.6176   -0.0401 N   0  0  0  0  0  0  0  0  0  0  0  0
    5.0629   -0.7272   -0.0499 H   0  0  0  0  0  0  0  0  0  0  0  0
    3.5305    0.6214   -0.0283 C   0  0  0  0  0  0  0  0  0  0  0  0
    4.2433    1.6113   -0.0302 O   0  0  0  0  0  0  0  0  0  0  0  0
    3.8430   -2.9667   -0.0515 N   0  0  0  0  0  0  0  0  0  0  0  0
   -3.1671   -2.2218    4.0026 H   0  0  0  0  0  0  0  0  0  0  0  0
   -1.8356   -2.6478    1.9757 H   0  0  0  0  0  0  0  0  0  0  0  0
   -2.3598    1.4109    0.7757 H   0  0  0  0  0  0  0  0  0  0  0  0
   -4.0989    0.0194    4.4153 H   0  0  0  0  0  0  0  0  0  0  0  0
   -2.9731   -1.2181   -1.1803 H   0  0  0  0  0  0  0  0  0  0  0  0
   -2.3081    0.4306   -1.2681 H   0  0  0  0  0  0  0  0  0  0  0  0
   -0.9065    1.9555    0.0171 H   0  0  0  0  0  0  0  0  0  0  0  0
    4.8091   -3.0537   -0.0612 H   0  0  0  0  0  0  0  0  0  0  0  0
    3.2846   -3.7598   -0.0507 H   0  0  0  0  0  0  0  0  0  0  0  0
  1  6  2  0  0  0  0
  1  2  1  0  0  0  0
  1 26  1  0  0  0  0
  2  3  2  0  0  0  0
  2 27  1  0  0  0  0
  3  4  1  0  0  0  0
  3  8  1  0  0  0  0
  4  5  2  0  0  0  0
  4 28  1  0  0  0  0
  5  6  1  0  0  0  0
  5  7  1  0  0  0  0
  6 29  1  0  0  0  0
  8  9  1  0  0  0  0
  8 10  1  0  0  0  0
  8 13  1  0  0  0  0
 10 11  1  0  0  0  0
 10 30  1  0  0  0  0
 10 31  1  0  0  0  0
 11 12  3  0  0  0  0
 13 18  1  0  0  0  0
 13 14  2  0  0  0  0
 14 15  1  0  0  0  0
 14 32  1  0  0  0  0
 15 16  1  0  0  0  0
 15 17  1  0  0  0  0
 17 23  1  0  0  0  0
 17 18  2  0  0  0  0
 18 19  1  0  0  0  0
 19 20  2  0  0  0  0
 20 21  1  0  0  0  0
 20 25  1  0  0  0  0
 21 22  1  0  0  0  0
 21 23  1  0  0  0  0
 23 24  2  0  0  0  0
 25 33  1  0  0  0  0
 25 34  1  0  0  0  0
M  END
$$$$
ZINC00005845
  -OEChem-08230709403D

 27 29  0     0  0  0  0  0  0999 V2000
    3.2030   -2.9763   -2.1224 C   0  0  0  0  0  0  0  0  0  0  0  0
    3.3625   -3.3840   -3.4053 C   0  0  0  0  0  0  0  0  0  0  0  0
    5.0630   -2.9436   -3.7240 S   0  0  0  0  0  0  0  0  0  0  0  0
    5.4439   -2.2391   -2.1284 C   0  0  0  0  0  0  0  0  0  0  0  0
    4.2681   -2.3844   -1.4699 C   0  0  0  0  0  0  0  0  0  0  0  0
    4.1261   -1.9132   -0.0455 C   0  0  0  0  0  0  0  0  0  0  0  0
    3.6606   -0.4799   -0.0346 C   0  0  0  0  0  0  0  0  0  0  0  0
    2.3196   -0.0432   -0.0203 C   0  0  0  0  0  0  0  0  0  0  0  0
    2.3532    1.3571   -0.0131 C   0  0  0  0  0  0  0  0  0  0  0  0
    1.1376    2.0616    0.0023 C   0  0  0  0  0  0  0  0  0  0  0  0
    1.1248    3.2817    0.0089 O   0  0  0  0  0  0  0  0  0  0  0  0
   -0.0164    1.3598    0.0095 N   0  0  0  0  0  0  0  0  0  0  0  0
   -0.8913    1.8439    0.0204 H   0  0  0  0  0  0  0  0  0  0  0  0
    0.0021   -0.0041    0.0020 C   0  0  0  0  0  0  0  0  0  0  0  0
    1.1260   -0.6809   -0.0123 N   0  0  0  0  0  0  0  0  0  0  0  0
   -1.1893   -0.6881    0.0092 N   0  0  0  0  0  0  0  0  0  0  0  0
    3.6819    1.7357   -0.0230 N   0  0  0  0  0  0  0  0  0  0  0  0
    4.0098    2.6486   -0.0210 H   0  0  0  0  0  0  0  0  0  0  0  0
    4.4550    0.6145   -0.0359 C   0  0  0  0  0  0  0  0  0  0  0  0
    5.8059    0.5982   -0.0488 F   0  0  0  0  0  0  0  0  0  0  0  0
    2.2567   -3.1084   -1.6190 H   0  0  0  0  0  0  0  0  0  0  0  0
    2.6479   -3.8571   -4.0624 H   0  0  0  0  0  0  0  0  0  0  0  0
    6.3708   -1.8091   -1.7786 H   0  0  0  0  0  0  0  0  0  0  0  0
    5.0895   -1.9861    0.4591 H   0  0  0  0  0  0  0  0  0  0  0  0
    3.3966   -2.5360    0.4722 H   0  0  0  0  0  0  0  0  0  0  0  0
   -2.0281   -0.2011    0.0195 H   0  0  0  0  0  0  0  0  0  0  0  0
   -1.1917   -1.6581    0.0040 H   0  0  0  0  0  0  0  0  0  0  0  0
  1  5  1  0  0  0  0
  1  2  2  0  0  0  0
  1 21  1  0  0  0  0
  2  3  1  0  0  0  0
  2 22  1  0  0  0  0
  3  4  1  0  0  0  0
  4  5  2  0  0  0  0
  4 23  1  0  0  0  0
  5  6  1  0  0  0  0
  6  7  1  0  0  0  0
  6 24  1  0  0  0  0
  6 25  1  0  0  0  0
  7 19  2  0  0  0  0
  7  8  1  0  0  0  0
  8 15  1  0  0  0  0
  8  9  2  0  0  0  0
  9 10  1  0  0  0  0
  9 17  1  0  0  0  0
 10 11  2  0  0  0  0
 10 12  1  0  0  0  0
 12 13  1  0  0  0  0
 12 14  1  0  0  0  0
 14 15  2  0  0  0  0
 14 16  1  0  0  0  0
 16 26  1  0  0  0  0
 16 27  1  0  0  0  0
 17 18  1  0  0  0  0
 17 19  1  0  0  0  0
 19 20  1  0  0  0  0
M  END
$$$$
ZINC00005845
  -OEChem-08230709403D

 27 29  0     0  0  0  0  0  0999 V2000
    3.2030   -2.9763   -2.1224 C   0  0  0  0  0  0  0  0  0  0  0  0
    3.3625   -3.3840   -3.4053 C   0  0  0  0  0  0  0  0  0  0  0  0
    5.0630   -2.9436   -3.7240 S   0  0  0  0  0  0  0  0  0  0  0  0
    5.4439   -2.2391   -2.1284 C   0  0  0  0  0  0  0  0  0  0  0  0
    4.2681   -2.3844   -1.4699 C   0  0  0  0  0  0  0  0  0  0  0  0
    4.1261   -1.9132   -0.0455 C   0  0  0  0  0  0  0  0  0  0  0  0
    3.6606   -0.4799   -0.0346 C   0  0  0  0  0  0  0  0  0  0  0  0
    2.3196   -0.0432   -0.0203 C   0  0  0  0  0  0  0  0  0  0  0  0
    2.3532    1.3571   -0.0131 C   0  0  0  0  0  0  0  0  0  0  0  0
    1.1376    2.0616    0.0023 C   0  0  0  0  0  0  0  0  0  0  0  0
    1.1248    3.2817    0.0089 O   0  0  0  0  0  0  0  0  0  0  0  0
   -0.0164    1.3598    0.0095 N   0  0  0  0  0  0  0  0  0  0  0  0
   -0.8913    1.8439    0.0204 H   0  0  0  0  0  0  0  0  0  0  0  0
    0.0021   -0.0041    0.0020 C   0  0  0  0  0  0  0  0  0  0  0  0
    1.1260   -0.6809   -0.0123 N   0  0  0  0  0  0  0  0  0  0  0  0
   -1.1893   -0.6881    0.0092 N   0  0  0  0  0  0  0  0  0  0  0  0
    3.6819    1.7357   -0.0230 N   0  0  0  0  0  0  0  0  0  0  0  0
    4.0098    2.6486   -0.0210 H   0  0  0  0  0  0  0  0  0  0  0  0
    4.4550    0.6145   -0.0359 C   0  0  0  0  0  0  0  0  0  0  0  0
    5.8059    0.5982   -0.0488 F   0  0  0  0  0  0  0  0  0  0  0  0
    2.2567   -3.1084   -1.6190 H   0  0  0  0  0  0  0  0  0  0  0  0
    2.6479   -3.8571   -4.0624 H   0  0  0  0  0  0  0  0  0  0  0  0
    6.3708   -1.8091   -1.7786 H   0  0  0  0  0  0  0  0  0  0  0  0
    5.0895   -1.9861    0.4591 H   0  0  0  0  0  0  0  0  0  0  0  0
    3.3966   -2.5360    0.4722 H   0  0  0  0  0  0  0  0  0  0  0  0
   -2.0281   -0.2011    0.0195 H   0  0  0  0  0  0  0  0  0  0  0  0
   -1.1917   -1.6581    0.0040 H   0  0  0  0  0  0  0  0  0  0  0  0
  1  5  1  0  0  0  0
  1  2  2  0  0  0  0
  1 21  1  0  0  0  0
  2  3  1  0  0  0  0
  2 22  1  0  0  0  0
  3  4  1  0  0  0  0
  4  5  2  0  0  0  0
  4 23  1  0  0  0  0
  5  6  1  0  0  0  0
  6  7  1  0  0  0  0
  6 24  1  0  0  0  0
  6 25  1  0  0  0  0
  7 19  2  0  0  0  0
  7  8  1  0  0  0  0
  8 15  1  0  0  0  0
  8  9  2  0  0  0  0
  9 10  1  0  0  0  0
  9 17  1  0  0  0  0
 10 11  2  0  0  0  0
 10 12  1  0  0  0  0
 12 13  1  0  0  0  0
 12 14  1  0  0  0  0
 14 15  2  0  0  0  0
 14 16  1  0  0  0  0
 16 26  1  0  0  0  0
 16 27  1  0  0  0  0
 17 18  1  0  0  0  0
 17 19  1  0  0  0  0
 19 20  1  0  0  0  0
M  END
$$$$
ZINC00005887
  -OEChem-08230709403D

 30 32  0     0  0  0  0  0  0999 V2000
    1.1750    1.7832    0.0004 C   0  0  0  0  0  0  0  0  0  0  0  0
   -0.0126    1.0758    0.0080 C   0  0  0  0  0  0  0  0  0  0  0  0
   -1.2190    1.7507    0.0173 C   0  0  0  0  0  0  0  0  0  0  0  0
   -1.2377    3.1328    0.0299 C   0  0  0  0  0  0  0  0  0  0  0  0
   -0.0501    3.8402    0.0223 C   0  0  0  0  0  0  0  0  0  0  0  0
    1.1563    3.1654    0.0076 C   0  0  0  0  0  0  0  0  0  0  0  0
   -2.5528    3.8685    0.0455 C   0  0  0  0  0  0  0  0  0  0  0  0
   -3.0043    4.1205   -1.3700 C   0  0  0  0  0  0  0  0  0  0  0  0
   -2.7893    5.2444   -2.0832 C   0  0  0  0  0  0  0  0  0  0  0  0
   -3.3408    5.1097   -3.3205 N   0  0  0  0  0  0  0  0  0  0  0  0
   -3.3231    5.7784   -4.0229 H   0  0  0  0  0  0  0  0  0  0  0  0
   -3.9285    3.8655   -3.4104 C   0  0  0  0  0  0  0  0  0  0  0  0
   -3.7220    3.2190   -2.1862 C   0  0  0  0  0  0  0  0  0  0  0  0
   -4.2072    1.9753   -2.0012 N   0  0  0  0  0  0  0  0  0  0  0  0
   -4.8609    1.3573   -2.9560 C   0  0  0  0  0  0  0  0  0  0  0  0
   -5.0843    1.9397   -4.1692 N   0  0  0  0  0  0  0  0  0  0  0  0
   -5.5862    1.4400   -4.8752 H   0  0  0  0  0  0  0  0  0  0  0  0
   -4.6319    3.1871   -4.4231 C   0  0  0  0  0  0  0  0  0  0  0  0
   -4.8291    3.7137   -5.5056 O   0  0  0  0  0  0  0  0  0  0  0  0
   -5.3342    0.0880   -2.7276 N   0  0  0  0  0  0  0  0  0  0  0  0
    2.1175    1.2560   -0.0115 H   0  0  0  0  0  0  0  0  0  0  0  0
    0.0021   -0.0041    0.0020 H   0  0  0  0  0  0  0  0  0  0  0  0
   -2.1469    1.1980    0.0188 H   0  0  0  0  0  0  0  0  0  0  0  0
   -0.0647    4.9201    0.0276 H   0  0  0  0  0  0  0  0  0  0  0  0
    2.0841    3.7181    0.0014 H   0  0  0  0  0  0  0  0  0  0  0  0
   -3.2997    3.2667    0.5633 H   0  0  0  0  0  0  0  0  0  0  0  0
   -2.4307    4.8201    0.5628 H   0  0  0  0  0  0  0  0  0  0  0  0
   -2.2608    6.1166   -1.7279 H   0  0  0  0  0  0  0  0  0  0  0  0
   -5.8196   -0.3813   -3.4241 H   0  0  0  0  0  0  0  0  0  0  0  0
   -5.1830   -0.3389   -1.8698 H   0  0  0  0  0  0  0  0  0  0  0  0
  1  6  2  0  0  0  0
  1  2  1  0  0  0  0
  1 21  1  0  0  0  0
  2  3  2  0  0  0  0
  2 22  1  0  0  0  0
  3  4  1  0  0  0  0
  3 23  1  0  0  0  0
  4  5  2  0  0  0  0
  4  7  1  0  0  0  0
  5  6  1  0  0  0  0
  5 24  1  0  0  0  0
  6 25  1  0  0  0  0
  7  8  1  0  0  0  0
  7 26  1  0  0  0  0
  7 27  1  0  0  0  0
  8 13  1  0  0  0  0
  8  9  2  0  0  0  0
  9 10  1  0  0  0  0
  9 28  1  0  0  0  0
 10 11  1  0  0  0  0
 10 12  1  0  0  0  0
 12 18  1  0  0  0  0
 12 13  2  0  0  0  0
 13 14  1  0  0  0  0
 14 15  2  0  0  0  0
 15 16  1  0  0  0  0
 15 20  1  0  0  0  0
 16 17  1  0  0  0  0
 16 18  1  0  0  0  0
 18 19  2  0  0  0  0
 20 29  1  0  0  0  0
 20 30  1  0  0  0  0
M  END
$$$$
ZINC00005887
  -OEChem-08230709403D

 30 32  0     0  0  0  0  0  0999 V2000
    1.1750    1.7832    0.0004 C   0  0  0  0  0  0  0  0  0  0  0  0
   -0.0126    1.0758    0.0080 C   0  0  0  0  0  0  0  0  0  0  0  0
   -1.2190    1.7507    0.0173 C   0  0  0  0  0  0  0  0  0  0  0  0
   -1.2377    3.1328    0.0299 C   0  0  0  0  0  0  0  0  0  0  0  0
   -0.0501    3.8402    0.0223 C   0  0  0  0  0  0  0  0  0  0  0  0
    1.1563    3.1654    0.0076 C   0  0  0  0  0  0  0  0  0  0  0  0
   -2.5528    3.8685    0.0455 C   0  0  0  0  0  0  0  0  0  0  0  0
   -3.0043    4.1205   -1.3700 C   0  0  0  0  0  0  0  0  0  0  0  0
   -2.7893    5.2444   -2.0832 C   0  0  0  0  0  0  0  0  0  0  0  0
   -3.3408    5.1097   -3.3205 N   0  0  0  0  0  0  0  0  0  0  0  0
   -3.3231    5.7784   -4.0229 H   0  0  0  0  0  0  0  0  0  0  0  0
   -3.9285    3.8655   -3.4104 C   0  0  0  0  0  0  0  0  0  0  0  0
   -3.7220    3.2190   -2.1862 C   0  0  0  0  0  0  0  0  0  0  0  0
   -4.2072    1.9753   -2.0012 N   0  0  0  0  0  0  0  0  0  0  0  0
   -4.8609    1.3573   -2.9560 C   0  0  0  0  0  0  0  0  0  0  0  0
   -5.0843    1.9397   -4.1692 N   0  0  0  0  0  0  0  0  0  0  0  0
   -5.5862    1.4400   -4.8752 H   0  0  0  0  0  0  0  0  0  0  0  0
   -4.6319    3.1871   -4.4231 C   0  0  0  0  0  0  0  0  0  0  0  0
   -4.8291    3.7137   -5.5056 O   0  0  0  0  0  0  0  0  0  0  0  0
   -5.3342    0.0880   -2.7276 N   0  0  0  0  0  0  0  0  0  0  0  0
    2.1175    1.2560   -0.0115 H   0  0  0  0  0  0  0  0  0  0  0  0
    0.0021   -0.0041    0.0020 H   0  0  0  0  0  0  0  0  0  0  0  0
   -2.1469    1.1980    0.0188 H   0  0  0  0  0  0  0  0  0  0  0  0
   -0.0647    4.9201    0.0276 H   0  0  0  0  0  0  0  0  0  0  0  0
    2.0841    3.7181    0.0014 H   0  0  0  0  0  0  0  0  0  0  0  0
   -3.2997    3.2667    0.5633 H   0  0  0  0  0  0  0  0  0  0  0  0
   -2.4307    4.8201    0.5628 H   0  0  0  0  0  0  0  0  0  0  0  0
   -2.2608    6.1166   -1.7279 H   0  0  0  0  0  0  0  0  0  0  0  0
   -5.8196   -0.3813   -3.4241 H   0  0  0  0  0  0  0  0  0  0  0  0
   -5.1830   -0.3389   -1.8698 H   0  0  0  0  0  0  0  0  0  0  0  0
  1  6  2  0  0  0  0
  1  2  1  0  0  0  0
  1 21  1  0  0  0  0
  2  3  2  0  0  0  0
  2 22  1  0  0  0  0
  3  4  1  0  0  0  0
  3 23  1  0  0  0  0
  4  5  2  0  0  0  0
  4  7  1  0  0  0  0
  5  6  1  0  0  0  0
  5 24  1  0  0  0  0
  6 25  1  0  0  0  0
  7  8  1  0  0  0  0
  7 26  1  0  0  0  0
  7 27  1  0  0  0  0
  8 13  1  0  0  0  0
  8  9  2  0  0  0  0
  9 10  1  0  0  0  0
  9 28  1  0  0  0  0
 10 11  1  0  0  0  0
 10 12  1  0  0  0  0
 12 18  1  0  0  0  0
 12 13  2  0  0  0  0
 13 14  1  0  0  0  0
 14 15  2  0  0  0  0
 15 16  1  0  0  0  0
 15 20  1  0  0  0  0
 16 17  1  0  0  0  0
 16 18  1  0  0  0  0
 18 19  2  0  0  0  0
 20 29  1  0  0  0  0
 20 30  1  0  0  0  0
M  END
$$$$
ZINC00007497
  -OEChem-08230709403D

 34 36  0     1  0  0  0  0  0999 V2000
    2.3774    1.4122   -0.0126 C   0  0  0  0  0  0  0  0  0  0  0  0
    1.1707    2.0872    0.0021 C   0  0  0  0  0  0  0  0  0  0  0  0
   -0.0167    1.3806    0.0096 C   0  0  0  0  0  0  0  0  0  0  0  0
    0.0021   -0.0041    0.0020 C   0  0  0  0  0  0  0  0  0  0  0  0
    1.2108   -0.6788   -0.0131 C   0  0  0  0  0  0  0  0  0  0  0  0
    2.3973    0.0301   -0.0207 C   0  0  0  0  0  0  0  0  0  0  0  0
    1.2329   -2.1856   -0.0210 C   0  0  2  0  0  0  0  0  0  0  0  0
    0.2108   -2.5640   -0.0129 H   0  0  0  0  0  0  0  0  0  0  0  0
    1.9737   -2.6912    1.2186 C   0  0  0  0  0  0  0  0  0  0  0  0
    1.2416   -2.3299    2.3914 O   0  0  0  0  0  0  0  0  0  0  0  0
    1.9386   -2.6712   -1.2608 C   0  0  0  0  0  0  0  0  0  0  0  0
    3.2142   -2.4016   -1.6047 C   0  0  0  0  0  0  0  0  0  0  0  0
    3.5035   -3.0090   -2.7882 N   0  0  0  0  0  0  0  0  0  0  0  0
    4.3556   -2.9698   -3.2500 H   0  0  0  0  0  0  0  0  0  0  0  0
    2.3855   -3.6898   -3.2217 C   0  0  0  0  0  0  0  0  0  0  0  0
    1.3829   -3.4941   -2.2648 C   0  0  0  0  0  0  0  0  0  0  0  0
    0.1699   -4.0518   -2.4494 N   0  0  0  0  0  0  0  0  0  0  0  0
   -0.0812   -4.7857   -3.5074 C   0  0  0  0  0  0  0  0  0  0  0  0
    0.8621   -5.0130   -4.4663 N   0  0  0  0  0  0  0  0  0  0  0  0
    0.6373   -5.5778   -5.2603 H   0  0  0  0  0  0  0  0  0  0  0  0
    2.0980   -4.4800   -4.3502 C   0  0  0  0  0  0  0  0  0  0  0  0
    2.9457   -4.6788   -5.2046 O   0  0  0  0  0  0  0  0  0  0  0  0
   -1.3291   -5.3413   -3.6535 N   0  0  0  0  0  0  0  0  0  0  0  0
   -1.1583   -0.6959    0.0089 F   0  0  0  0  0  0  0  0  0  0  0  0
    3.3050    1.9653   -0.0181 H   0  0  0  0  0  0  0  0  0  0  0  0
    1.1563    3.1670    0.0077 H   0  0  0  0  0  0  0  0  0  0  0  0
   -0.9591    1.9080    0.0170 H   0  0  0  0  0  0  0  0  0  0  0  0
    3.3404   -0.4960   -0.0325 H   0  0  0  0  0  0  0  0  0  0  0  0
    2.0675   -3.7760    1.1686 H   0  0  0  0  0  0  0  0  0  0  0  0
    2.9662   -2.2422    1.2571 H   0  0  0  0  0  0  0  0  0  0  0  0
    1.6538   -2.6191    3.2170 H   0  0  0  0  0  0  0  0  0  0  0  0
    3.9003   -1.7971   -1.0301 H   0  0  0  0  0  0  0  0  0  0  0  0
   -1.5293   -5.8865   -4.4304 H   0  0  0  0  0  0  0  0  0  0  0  0
   -2.0100   -5.1884   -2.9798 H   0  0  0  0  0  0  0  0  0  0  0  0
  1  6  2  0  0  0  0
  1  2  1  0  0  0  0
  1 25  1  0  0  0  0
  2  3  2  0  0  0  0
  2 26  1  0  0  0  0
  3  4  1  0  0  0  0
  3 27  1  0  0  0  0
  4  5  2  0  0  0  0
  4 24  1  0  0  0  0
  5  6  1  0  0  0  0
  5  7  1  0  0  0  0
  6 28  1  0  0  0  0
  7  8  1  0  0  0  0
  7  9  1  0  0  0  0
  7 11  1  0  0  0  0
  9 10  1  0  0  0  0
  9 29  1  0  0  0  0
  9 30  1  0  0  0  0
 10 31  1  0  0  0  0
 11 16  1  0  0  0  0
 11 12  2  0  0  0  0
 12 13  1  0  0  0  0
 12 32  1  0  0  0  0
 13 14  1  0  0  0  0
 13 15  1  0  0  0  0
 15 21  1  0  0  0  0
 15 16  2  0  0  0  0
 16 17  1  0  0  0  0
 17 18  2  0  0  0  0
 18 19  1  0  0  0  0
 18 23  1  0  0  0  0
 19 20  1  0  0  0  0
 19 21  1  0  0  0  0
 21 22  2  0  0  0  0
 23 33  1  0  0  0  0
 23 34  1  0  0  0  0
M  END
$$$$
ZINC00007497
  -OEChem-08230709403D

 34 36  0     1  0  0  0  0  0999 V2000
    2.3774    1.4122   -0.0126 C   0  0  0  0  0  0  0  0  0  0  0  0
    1.1707    2.0872    0.0021 C   0  0  0  0  0  0  0  0  0  0  0  0
   -0.0167    1.3806    0.0096 C   0  0  0  0  0  0  0  0  0  0  0  0
    0.0021   -0.0041    0.0020 C   0  0  0  0  0  0  0  0  0  0  0  0
    1.2108   -0.6788   -0.0131 C   0  0  0  0  0  0  0  0  0  0  0  0
    2.3973    0.0301   -0.0207 C   0  0  0  0  0  0  0  0  0  0  0  0
    1.2329   -2.1856   -0.0210 C   0  0  2  0  0  0  0  0  0  0  0  0
    0.2108   -2.5640   -0.0129 H   0  0  0  0  0  0  0  0  0  0  0  0
    1.9737   -2.6912    1.2186 C   0  0  0  0  0  0  0  0  0  0  0  0
    1.2416   -2.3299    2.3914 O   0  0  0  0  0  0  0  0  0  0  0  0
    1.9386   -2.6712   -1.2608 C   0  0  0  0  0  0  0  0  0  0  0  0
    3.2142   -2.4016   -1.6047 C   0  0  0  0  0  0  0  0  0  0  0  0
    3.5035   -3.0090   -2.7882 N   0  0  0  0  0  0  0  0  0  0  0  0
    4.3556   -2.9698   -3.2500 H   0  0  0  0  0  0  0  0  0  0  0  0
    2.3855   -3.6898   -3.2217 C   0  0  0  0  0  0  0  0  0  0  0  0
    1.3829   -3.4941   -2.2648 C   0  0  0  0  0  0  0  0  0  0  0  0
    0.1699   -4.0518   -2.4494 N   0  0  0  0  0  0  0  0  0  0  0  0
   -0.0812   -4.7857   -3.5074 C   0  0  0  0  0  0  0  0  0  0  0  0
    0.8621   -5.0130   -4.4663 N   0  0  0  0  0  0  0  0  0  0  0  0
    0.6373   -5.5778   -5.2603 H   0  0  0  0  0  0  0  0  0  0  0  0
    2.0980   -4.4800   -4.3502 C   0  0  0  0  0  0  0  0  0  0  0  0
    2.9457   -4.6788   -5.2046 O   0  0  0  0  0  0  0  0  0  0  0  0
   -1.3291   -5.3413   -3.6535 N   0  0  0  0  0  0  0  0  0  0  0  0
   -1.1583   -0.6959    0.0089 F   0  0  0  0  0  0  0  0  0  0  0  0
    3.3050    1.9653   -0.0181 H   0  0  0  0  0  0  0  0  0  0  0  0
    1.1563    3.1670    0.0077 H   0  0  0  0  0  0  0  0  0  0  0  0
   -0.9591    1.9080    0.0170 H   0  0  0  0  0  0  0  0  0  0  0  0
    3.3404   -0.4960   -0.0325 H   0  0  0  0  0  0  0  0  0  0  0  0
    2.0675   -3.7760    1.1686 H   0  0  0  0  0  0  0  0  0  0  0  0
    2.9662   -2.2422    1.2571 H   0  0  0  0  0  0  0  0  0  0  0  0
    1.6538   -2.6191    3.2170 H   0  0  0  0  0  0  0  0  0  0  0  0
    3.9003   -1.7971   -1.0301 H   0  0  0  0  0  0  0  0  0  0  0  0
   -1.5293   -5.8865   -4.4304 H   0  0  0  0  0  0  0  0  0  0  0  0
   -2.0100   -5.1884   -2.9798 H   0  0  0  0  0  0  0  0  0  0  0  0
  1  6  2  0  0  0  0
  1  2  1  0  0  0  0
  1 25  1  0  0  0  0
  2  3  2  0  0  0  0
  2 26  1  0  0  0  0
  3  4  1  0  0  0  0
  3 27  1  0  0  0  0
  4  5  2  0  0  0  0
  4 24  1  0  0  0  0
  5  6  1  0  0  0  0
  5  7  1  0  0  0  0
  6 28  1  0  0  0  0
  7  8  1  0  0  0  0
  7  9  1  0  0  0  0
  7 11  1  0  0  0  0
  9 10  1  0  0  0  0
  9 29  1  0  0  0  0
  9 30  1  0  0  0  0
 10 31  1  0  0  0  0
 11 16  1  0  0  0  0
 11 12  2  0  0  0  0
 12 13  1  0  0  0  0
 12 32  1  0  0  0  0
 13 14  1  0  0  0  0
 13 15  1  0  0  0  0
 15 21  1  0  0  0  0
 15 16  2  0  0  0  0
 16 17  1  0  0  0  0
 17 18  2  0  0  0  0
 18 19  1  0  0  0  0
 18 23  1  0  0  0  0
 19 20  1  0  0  0  0
 19 21  1  0  0  0  0
 21 22  2  0  0  0  0
 23 33  1  0  0  0  0
 23 34  1  0  0  0  0
M  END
$$$$
ZINC00008391
  -OEChem-08230709403D

 34 36  0     1  0  0  0  0  0999 V2000
    3.2764   -0.9649    3.4577 C   0  0  0  0  0  0  0  0  0  0  0  0
    4.0001    0.1922    3.2377 C   0  0  0  0  0  0  0  0  0  0  0  0
    3.7524    0.9594    2.1148 C   0  0  0  0  0  0  0  0  0  0  0  0
    2.7816    0.5690    1.2114 C   0  0  0  0  0  0  0  0  0  0  0  0
    2.0546   -0.5855    1.4338 C   0  0  0  0  0  0  0  0  0  0  0  0
    2.3054   -1.3550    2.5545 C   0  0  0  0  0  0  0  0  0  0  0  0
    2.5116    1.4054   -0.0128 C   0  0  1  0  0  0  0  0  0  0  0  0
    3.1735    2.2714   -0.0145 H   0  0  0  0  0  0  0  0  0  0  0  0
    2.7641    0.5681   -1.2683 C   0  0  0  0  0  0  0  0  0  0  0  0
    2.6171    1.4170   -2.4619 C   0  0  0  0  0  0  0  0  0  0  0  0
    2.5036    2.0721   -3.3830 N   0  0  0  0  0  0  0  0  0  0  0  0
    1.0778    1.8690    0.0018 C   0  0  0  0  0  0  0  0  0  0  0  0
   -0.0126    1.0758    0.0080 C   0  0  0  0  0  0  0  0  0  0  0  0
   -1.1347    1.8464    0.0169 N   0  0  0  0  0  0  0  0  0  0  0  0
   -2.0469    1.5164    0.0189 H   0  0  0  0  0  0  0  0  0  0  0  0
   -0.7607    3.1736    0.0250 C   0  0  0  0  0  0  0  0  0  0  0  0
    0.6385    3.2110    0.0123 C   0  0  0  0  0  0  0  0  0  0  0  0
    1.2716    4.4008    0.0123 N   0  0  0  0  0  0  0  0  0  0  0  0
    0.5953    5.5248    0.0236 C   0  0  0  0  0  0  0  0  0  0  0  0
   -0.7687    5.5443    0.0366 N   0  0  0  0  0  0  0  0  0  0  0  0
   -1.2529    6.4192    0.0456 H   0  0  0  0  0  0  0  0  0  0  0  0
   -1.4695    4.3893    0.0374 C   0  0  0  0  0  0  0  0  0  0  0  0
   -2.6892    4.4000    0.0483 O   0  0  0  0  0  0  0  0  0  0  0  0
    1.2800    6.7158    0.0227 N   0  0  0  0  0  0  0  0  0  0  0  0
    3.4700   -1.5643    4.3350 H   0  0  0  0  0  0  0  0  0  0  0  0
    4.7587    0.4970    3.9433 H   0  0  0  0  0  0  0  0  0  0  0  0
    4.3175    1.8636    1.9431 H   0  0  0  0  0  0  0  0  0  0  0  0
    1.2932   -0.8882    0.7302 H   0  0  0  0  0  0  0  0  0  0  0  0
    1.7402   -2.2592    2.7262 H   0  0  0  0  0  0  0  0  0  0  0  0
    3.7739    0.1593   -1.2354 H   0  0  0  0  0  0  0  0  0  0  0  0
    2.0429   -0.2480   -1.3119 H   0  0  0  0  0  0  0  0  0  0  0  0
    0.0021   -0.0041    0.0020 H   0  0  0  0  0  0  0  0  0  0  0  0
    0.7934    7.5549    0.0312 H   0  0  0  0  0  0  0  0  0  0  0  0
    2.2499    6.7176    0.0135 H   0  0  0  0  0  0  0  0  0  0  0  0
  1  6  2  0  0  0  0
  1  2  1  0  0  0  0
  1 25  1  0  0  0  0
  2  3  2  0  0  0  0
  2 26  1  0  0  0  0
  3  4  1  0  0  0  0
  3 27  1  0  0  0  0
  4  5  2  0  0  0  0
  4  7  1  0  0  0  0
  5  6  1  0  0  0  0
  5 28  1  0  0  0  0
  6 29  1  0  0  0  0
  7  8  1  0  0  0  0
  7  9  1  0  0  0  0
  7 12  1  0  0  0  0
  9 10  1  0  0  0  0
  9 30  1  0  0  0  0
  9 31  1  0  0  0  0
 10 11  3  0  0  0  0
 12 17  1  0  0  0  0
 12 13  2  0  0  0  0
 13 14  1  0  0  0  0
 13 32  1  0  0  0  0
 14 15  1  0  0  0  0
 14 16  1  0  0  0  0
 16 22  1  0  0  0  0
 16 17  2  0  0  0  0
 17 18  1  0  0  0  0
 18 19  2  0  0  0  0
 19 20  1  0  0  0  0
 19 24  1  0  0  0  0
 20 21  1  0  0  0  0
 20 22  1  0  0  0  0
 22 23  2  0  0  0  0
 24 33  1  0  0  0  0
 24 34  1  0  0  0  0
M  END
$$$$
ZINC00008391
  -OEChem-08230709403D

 34 36  0     1  0  0  0  0  0999 V2000
    3.2764   -0.9649    3.4577 C   0  0  0  0  0  0  0  0  0  0  0  0
    4.0001    0.1922    3.2377 C   0  0  0  0  0  0  0  0  0  0  0  0
    3.7524    0.9594    2.1148 C   0  0  0  0  0  0  0  0  0  0  0  0
    2.7816    0.5690    1.2114 C   0  0  0  0  0  0  0  0  0  0  0  0
    2.0546   -0.5855    1.4338 C   0  0  0  0  0  0  0  0  0  0  0  0
    2.3054   -1.3550    2.5545 C   0  0  0  0  0  0  0  0  0  0  0  0
    2.5116    1.4054   -0.0128 C   0  0  1  0  0  0  0  0  0  0  0  0
    3.1735    2.2714   -0.0145 H   0  0  0  0  0  0  0  0  0  0  0  0
    2.7641    0.5681   -1.2683 C   0  0  0  0  0  0  0  0  0  0  0  0
    2.6171    1.4170   -2.4619 C   0  0  0  0  0  0  0  0  0  0  0  0
    2.5036    2.0721   -3.3830 N   0  0  0  0  0  0  0  0  0  0  0  0
    1.0778    1.8690    0.0018 C   0  0  0  0  0  0  0  0  0  0  0  0
   -0.0126    1.0758    0.0080 C   0  0  0  0  0  0  0  0  0  0  0  0
   -1.1347    1.8464    0.0169 N   0  0  0  0  0  0  0  0  0  0  0  0
   -2.0469    1.5164    0.0189 H   0  0  0  0  0  0  0  0  0  0  0  0
   -0.7607    3.1736    0.0250 C   0  0  0  0  0  0  0  0  0  0  0  0
    0.6385    3.2110    0.0123 C   0  0  0  0  0  0  0  0  0  0  0  0
    1.2716    4.4008    0.0123 N   0  0  0  0  0  0  0  0  0  0  0  0
    0.5953    5.5248    0.0236 C   0  0  0  0  0  0  0  0  0  0  0  0
   -0.7687    5.5443    0.0366 N   0  0  0  0  0  0  0  0  0  0  0  0
   -1.2529    6.4192    0.0456 H   0  0  0  0  0  0  0  0  0  0  0  0
   -1.4695    4.3893    0.0374 C   0  0  0  0  0  0  0  0  0  0  0  0
   -2.6892    4.4000    0.0483 O   0  0  0  0  0  0  0  0  0  0  0  0
    1.2800    6.7158    0.0227 N   0  0  0  0  0  0  0  0  0  0  0  0
    3.4700   -1.5643    4.3350 H   0  0  0  0  0  0  0  0  0  0  0  0
    4.7587    0.4970    3.9433 H   0  0  0  0  0  0  0  0  0  0  0  0
    4.3175    1.8636    1.9431 H   0  0  0  0  0  0  0  0  0  0  0  0
    1.2932   -0.8882    0.7302 H   0  0  0  0  0  0  0  0  0  0  0  0
    1.7402   -2.2592    2.7262 H   0  0  0  0  0  0  0  0  0  0  0  0
    3.7739    0.1593   -1.2354 H   0  0  0  0  0  0  0  0  0  0  0  0
    2.0429   -0.2480   -1.3119 H   0  0  0  0  0  0  0  0  0  0  0  0
    0.0021   -0.0041    0.0020 H   0  0  0  0  0  0  0  0  0  0  0  0
    0.7934    7.5549    0.0312 H   0  0  0  0  0  0  0  0  0  0  0  0
    2.2499    6.7176    0.0135 H   0  0  0  0  0  0  0  0  0  0  0  0
  1  6  2  0  0  0  0
  1  2  1  0  0  0  0
  1 25  1  0  0  0  0
  2  3  2  0  0  0  0
  2 26  1  0  0  0  0
  3  4  1  0  0  0  0
  3 27  1  0  0  0  0
  4  5  2  0  0  0  0
  4  7  1  0  0  0  0
  5  6  1  0  0  0  0
  5 28  1  0  0  0  0
  6 29  1  0  0  0  0
  7  8  1  0  0  0  0
  7  9  1  0  0  0  0
  7 12  1  0  0  0  0
  9 10  1  0  0  0  0
  9 30  1  0  0  0  0
  9 31  1  0  0  0  0
 10 11  3  0  0  0  0
 12 17  1  0  0  0  0
 12 13  2  0  0  0  0
 13 14  1  0  0  0  0
 13 32  1  0  0  0  0
 14 15  1  0  0  0  0
 14 16  1  0  0  0  0
 16 22  1  0  0  0  0
 16 17  2  0  0  0  0
 17 18  1  0  0  0  0
 18 19  2  0  0  0  0
 19 20  1  0  0  0  0
 19 24  1  0  0  0  0
 20 21  1  0  0  0  0
 20 22  1  0  0  0  0
 22 23  2  0  0  0  0
 24 33  1  0  0  0  0
 24 34  1  0  0  0  0
M  END
$$$$
ZINC00008393
  -OEChem-08230709403D

 37 39  0     1  0  0  0  0  0999 V2000
   -2.2730    8.5714   -3.4293 C   0  0  0  0  0  0  0  0  0  0  0  0
   -1.0560    7.9505   -3.2190 C   0  0  0  0  0  0  0  0  0  0  0  0
   -0.8641    7.1684   -2.0955 C   0  0  0  0  0  0  0  0  0  0  0  0
   -1.8890    7.0080   -1.1817 C   0  0  0  0  0  0  0  0  0  0  0  0
   -3.1075    7.6250   -1.3945 C   0  0  0  0  0  0  0  0  0  0  0  0
   -3.2980    8.4106   -2.5158 C   0  0  0  0  0  0  0  0  0  0  0  0
   -1.6798    6.1554    0.0432 C   0  0  1  0  0  0  0  0  0  0  0  0
   -0.6672    5.7519    0.0364 H   0  0  0  0  0  0  0  0  0  0  0  0
   -1.8808    7.0074    1.2980 C   0  0  0  0  0  0  0  0  0  0  0  0
   -1.5523    6.1881    2.5194 C   0  0  0  0  0  0  0  0  0  0  0  0
   -1.1927    5.0362    2.3982 O   0  0  0  0  0  0  0  0  0  0  0  0
   -1.6580    6.7355    3.7464 N   0  0  0  0  0  0  0  0  0  0  0  0
   -2.6724    5.0215    0.0415 C   0  0  0  0  0  0  0  0  0  0  0  0
   -4.0153    5.1426    0.0478 C   0  0  0  0  0  0  0  0  0  0  0  0
   -4.5829    3.9052    0.0438 N   0  0  0  0  0  0  0  0  0  0  0  0
   -5.5351    3.7203    0.0468 H   0  0  0  0  0  0  0  0  0  0  0  0
   -3.5807    2.9582    0.0347 C   0  0  0  0  0  0  0  0  0  0  0  0
   -2.3607    3.6443    0.0331 C   0  0  0  0  0  0  0  0  0  0  0  0
   -1.2066    2.9482    0.0292 N   0  0  0  0  0  0  0  0  0  0  0  0
   -1.2100    1.6365    0.0167 C   0  0  0  0  0  0  0  0  0  0  0  0
   -2.3706    0.9195    0.0183 N   0  0  0  0  0  0  0  0  0  0  0  0
   -2.3371   -0.0799    0.0131 H   0  0  0  0  0  0  0  0  0  0  0  0
   -3.5649    1.5510    0.0269 C   0  0  0  0  0  0  0  0  0  0  0  0
   -4.6062    0.9156    0.0276 O   0  0  0  0  0  0  0  0  0  0  0  0
   -0.0111    0.9658    0.0074 N   0  0  0  0  0  0  0  0  0  0  0  0
   -2.4230    9.1825   -4.3072 H   0  0  0  0  0  0  0  0  0  0  0  0
   -0.2552    8.0761   -3.9327 H   0  0  0  0  0  0  0  0  0  0  0  0
    0.0866    6.6830   -1.9313 H   0  0  0  0  0  0  0  0  0  0  0  0
   -3.9096    7.4961   -0.6828 H   0  0  0  0  0  0  0  0  0  0  0  0
   -4.2487    8.8960   -2.6800 H   0  0  0  0  0  0  0  0  0  0  0  0
   -1.2244    7.8765    1.2561 H   0  0  0  0  0  0  0  0  0  0  0  0
   -2.9182    7.3378    1.3504 H   0  0  0  0  0  0  0  0  0  0  0  0
   -1.9456    7.6568    3.8434 H   0  0  0  0  0  0  0  0  0  0  0  0
   -1.4466    6.2082    4.5326 H   0  0  0  0  0  0  0  0  0  0  0  0
   -4.5569    6.0769    0.0552 H   0  0  0  0  0  0  0  0  0  0  0  0
    0.0021   -0.0041    0.0020 H   0  0  0  0  0  0  0  0  0  0  0  0
    0.8223    1.4622    0.0021 H   0  0  0  0  0  0  0  0  0  0  0  0
  1  6  2  0  0  0  0
  1  2  1  0  0  0  0
  1 26  1  0  0  0  0
  2  3  2  0  0  0  0
  2 27  1  0  0  0  0
  3  4  1  0  0  0  0
  3 28  1  0  0  0  0
  4  5  2  0  0  0  0
  4  7  1  0  0  0  0
  5  6  1  0  0  0  0
  5 29  1  0  0  0  0
  6 30  1  0  0  0  0
  7  8  1  0  0  0  0
  7  9  1  0  0  0  0
  7 13  1  0  0  0  0
  9 10  1  0  0  0  0
  9 31  1  0  0  0  0
  9 32  1  0  0  0  0
 10 11  2  0  0  0  0
 10 12  1  0  0  0  0
 12 33  1  0  0  0  0
 12 34  1  0  0  0  0
 13 18  1  0  0  0  0
 13 14  2  0  0  0  0
 14 15  1  0  0  0  0
 14 35  1  0  0  0  0
 15 16  1  0  0  0  0
 15 17  1  0  0  0  0
 17 23  1  0  0  0  0
 17 18  2  0  0  0  0
 18 19  1  0  0  0  0
 19 20  2  0  0  0  0
 20 21  1  0  0  0  0
 20 25  1  0  0  0  0
 21 22  1  0  0  0  0
 21 23  1  0  0  0  0
 23 24  2  0  0  0  0
 25 36  1  0  0  0  0
 25 37  1  0  0  0  0
M  END
$$$$
ZINC00008393
  -OEChem-08230709403D

 37 39  0     1  0  0  0  0  0999 V2000
   -2.2730    8.5714   -3.4293 C   0  0  0  0  0  0  0  0  0  0  0  0
   -1.0560    7.9505   -3.2190 C   0  0  0  0  0  0  0  0  0  0  0  0
   -0.8641    7.1684   -2.0955 C   0  0  0  0  0  0  0  0  0  0  0  0
   -1.8890    7.0080   -1.1817 C   0  0  0  0  0  0  0  0  0  0  0  0
   -3.1075    7.6250   -1.3945 C   0  0  0  0  0  0  0  0  0  0  0  0
   -3.2980    8.4106   -2.5158 C   0  0  0  0  0  0  0  0  0  0  0  0
   -1.6798    6.1554    0.0432 C   0  0  1  0  0  0  0  0  0  0  0  0
   -0.6672    5.7519    0.0364 H   0  0  0  0  0  0  0  0  0  0  0  0
   -1.8808    7.0074    1.2980 C   0  0  0  0  0  0  0  0  0  0  0  0
   -1.5523    6.1881    2.5194 C   0  0  0  0  0  0  0  0  0  0  0  0
   -1.1927    5.0362    2.3982 O   0  0  0  0  0  0  0  0  0  0  0  0
   -1.6580    6.7355    3.7464 N   0  0  0  0  0  0  0  0  0  0  0  0
   -2.6724    5.0215    0.0415 C   0  0  0  0  0  0  0  0  0  0  0  0
   -4.0153    5.1426    0.0478 C   0  0  0  0  0  0  0  0  0  0  0  0
   -4.5829    3.9052    0.0438 N   0  0  0  0  0  0  0  0  0  0  0  0
   -5.5351    3.7203    0.0468 H   0  0  0  0  0  0  0  0  0  0  0  0
   -3.5807    2.9582    0.0347 C   0  0  0  0  0  0  0  0  0  0  0  0
   -2.3607    3.6443    0.0331 C   0  0  0  0  0  0  0  0  0  0  0  0
   -1.2066    2.9482    0.0292 N   0  0  0  0  0  0  0  0  0  0  0  0
   -1.2100    1.6365    0.0167 C   0  0  0  0  0  0  0  0  0  0  0  0
   -2.3706    0.9195    0.0183 N   0  0  0  0  0  0  0  0  0  0  0  0
   -2.3371   -0.0799    0.0131 H   0  0  0  0  0  0  0  0  0  0  0  0
   -3.5649    1.5510    0.0269 C   0  0  0  0  0  0  0  0  0  0  0  0
   -4.6062    0.9156    0.0276 O   0  0  0  0  0  0  0  0  0  0  0  0
   -0.0111    0.9658    0.0074 N   0  0  0  0  0  0  0  0  0  0  0  0
   -2.4230    9.1825   -4.3072 H   0  0  0  0  0  0  0  0  0  0  0  0
   -0.2552    8.0761   -3.9327 H   0  0  0  0  0  0  0  0  0  0  0  0
    0.0866    6.6830   -1.9313 H   0  0  0  0  0  0  0  0  0  0  0  0
   -3.9096    7.4961   -0.6828 H   0  0  0  0  0  0  0  0  0  0  0  0
   -4.2487    8.8960   -2.6800 H   0  0  0  0  0  0  0  0  0  0  0  0
   -1.2244    7.8765    1.2561 H   0  0  0  0  0  0  0  0  0  0  0  0
   -2.9182    7.3378    1.3504 H   0  0  0  0  0  0  0  0  0  0  0  0
   -1.9456    7.6568    3.8434 H   0  0  0  0  0  0  0  0  0  0  0  0
   -1.4466    6.2082    4.5326 H   0  0  0  0  0  0  0  0  0  0  0  0
   -4.5569    6.0769    0.0552 H   0  0  0  0  0  0  0  0  0  0  0  0
    0.0021   -0.0041    0.0020 H   0  0  0  0  0  0  0  0  0  0  0  0
    0.8223    1.4622    0.0021 H   0  0  0  0  0  0  0  0  0  0  0  0
  1  6  2  0  0  0  0
  1  2  1  0  0  0  0
  1 26  1  0  0  0  0
  2  3  2  0  0  0  0
  2 27  1  0  0  0  0
  3  4  1  0  0  0  0
  3 28  1  0  0  0  0
  4  5  2  0  0  0  0
  4  7  1  0  0  0  0
  5  6  1  0  0  0  0
  5 29  1  0  0  0  0
  6 30  1  0  0  0  0
  7  8  1  0  0  0  0
  7  9  1  0  0  0  0
  7 13  1  0  0  0  0
  9 10  1  0  0  0  0
  9 31  1  0  0  0  0
  9 32  1  0  0  0  0
 10 11  2  0  0  0  0
 10 12  1  0  0  0  0
 12 33  1  0  0  0  0
 12 34  1  0  0  0  0
 13 18  1  0  0  0  0
 13 14  2  0  0  0  0
 14 15  1  0  0  0  0
 14 35  1  0  0  0  0
 15 16  1  0  0  0  0
 15 17  1  0  0  0  0
 17 23  1  0  0  0  0
 17 18  2  0  0  0  0
 18 19  1  0  0  0  0
 19 20  2  0  0  0  0
 20 21  1  0  0  0  0
 20 25  1  0  0  0  0
 21 22  1  0  0  0  0
 21 23  1  0  0  0  0
 23 24  2  0  0  0  0
 25 36  1  0  0  0  0
 25 37  1  0  0  0  0
M  END
$$$$
ZINC00014555
  -OEChem-08230709403D

 29 31  0     0  0  0  0  0  0999 V2000
    3.1966   -2.9730   -2.1242 C   0  0  0  0  0  0  0  0  0  0  0  0
    3.3550   -3.3802   -3.4073 C   0  0  0  0  0  0  0  0  0  0  0  0
    5.0558   -2.9415   -3.7267 S   0  0  0  0  0  0  0  0  0  0  0  0
    5.4383   -2.2381   -2.1310 C   0  0  0  0  0  0  0  0  0  0  0  0
    4.2626   -2.3824   -1.4719 C   0  0  0  0  0  0  0  0  0  0  0  0
    4.1218   -1.9116   -0.0473 C   0  0  0  0  0  0  0  0  0  0  0  0
    3.6578   -0.4778   -0.0356 C   0  0  0  0  0  0  0  0  0  0  0  0
    2.3198   -0.0411   -0.0204 C   0  0  0  0  0  0  0  0  0  0  0  0
    2.3511    1.3608   -0.0132 C   0  0  0  0  0  0  0  0  0  0  0  0
    1.1371    2.0622    0.0023 C   0  0  0  0  0  0  0  0  0  0  0  0
    1.1231    3.2827    0.0094 O   0  0  0  0  0  0  0  0  0  0  0  0
   -0.0164    1.3599    0.0095 N   0  0  0  0  0  0  0  0  0  0  0  0
   -0.8914    1.8438    0.0204 H   0  0  0  0  0  0  0  0  0  0  0  0
    0.0021   -0.0041    0.0020 C   0  0  0  0  0  0  0  0  0  0  0  0
    1.1262   -0.6805   -0.0124 N   0  0  0  0  0  0  0  0  0  0  0  0
   -1.1891   -0.6883    0.0093 N   0  0  0  0  0  0  0  0  0  0  0  0
    3.6822    1.7440   -0.0239 N   0  0  0  0  0  0  0  0  0  0  0  0
    4.0084    2.6575   -0.0221 H   0  0  0  0  0  0  0  0  0  0  0  0
    4.4580    0.6212   -0.0373 C   0  0  0  0  0  0  0  0  0  0  0  0
    5.8427    0.6042   -0.0500 N   0  0  0  0  0  0  0  0  0  0  0  0
    2.2504   -3.1042   -1.6203 H   0  0  0  0  0  0  0  0  0  0  0  0
    2.6395   -3.8523   -4.0642 H   0  0  0  0  0  0  0  0  0  0  0  0
    6.3658   -1.8092   -1.7814 H   0  0  0  0  0  0  0  0  0  0  0  0
    5.0853   -1.9858    0.4569 H   0  0  0  0  0  0  0  0  0  0  0  0
    3.3919   -2.5339    0.4705 H   0  0  0  0  0  0  0  0  0  0  0  0
   -2.0280   -0.2014    0.0196 H   0  0  0  0  0  0  0  0  0  0  0  0
   -1.1913   -1.6583    0.0041 H   0  0  0  0  0  0  0  0  0  0  0  0
    6.3381    1.4382   -0.0501 H   0  0  0  0  0  0  0  0  0  0  0  0
    6.3173   -0.2418   -0.0588 H   0  0  0  0  0  0  0  0  0  0  0  0
  1  5  1  0  0  0  0
  1  2  2  0  0  0  0
  1 21  1  0  0  0  0
  2  3  1  0  0  0  0
  2 22  1  0  0  0  0
  3  4  1  0  0  0  0
  4  5  2  0  0  0  0
  4 23  1  0  0  0  0
  5  6  1  0  0  0  0
  6  7  1  0  0  0  0
  6 24  1  0  0  0  0
  6 25  1  0  0  0  0
  7 19  2  0  0  0  0
  7  8  1  0  0  0  0
  8 15  1  0  0  0  0
  8  9  2  0  0  0  0
  9 10  1  0  0  0  0
  9 17  1  0  0  0  0
 10 11  2  0  0  0  0
 10 12  1  0  0  0  0
 12 13  1  0  0  0  0
 12 14  1  0  0  0  0
 14 15  2  0  0  0  0
 14 16  1  0  0  0  0
 16 26  1  0  0  0  0
 16 27  1  0  0  0  0
 17 18  1  0  0  0  0
 17 19  1  0  0  0  0
 19 20  1  0  0  0  0
 20 28  1  0  0  0  0
 20 29  1  0  0  0  0
M  END
$$$$
ZINC00014555
  -OEChem-08230709403D

 29 31  0     0  0  0  0  0  0999 V2000
    3.1966   -2.9730   -2.1242 C   0  0  0  0  0  0  0  0  0  0  0  0
    3.3550   -3.3802   -3.4073 C   0  0  0  0  0  0  0  0  0  0  0  0
    5.0558   -2.9415   -3.7267 S   0  0  0  0  0  0  0  0  0  0  0  0
    5.4383   -2.2381   -2.1310 C   0  0  0  0  0  0  0  0  0  0  0  0
    4.2626   -2.3824   -1.4719 C   0  0  0  0  0  0  0  0  0  0  0  0
    4.1218   -1.9116   -0.0473 C   0  0  0  0  0  0  0  0  0  0  0  0
    3.6578   -0.4778   -0.0356 C   0  0  0  0  0  0  0  0  0  0  0  0
    2.3198   -0.0411   -0.0204 C   0  0  0  0  0  0  0  0  0  0  0  0
    2.3511    1.3608   -0.0132 C   0  0  0  0  0  0  0  0  0  0  0  0
    1.1371    2.0622    0.0023 C   0  0  0  0  0  0  0  0  0  0  0  0
    1.1231    3.2827    0.0094 O   0  0  0  0  0  0  0  0  0  0  0  0
   -0.0164    1.3599    0.0095 N   0  0  0  0  0  0  0  0  0  0  0  0
   -0.8914    1.8438    0.0204 H   0  0  0  0  0  0  0  0  0  0  0  0
    0.0021   -0.0041    0.0020 C   0  0  0  0  0  0  0  0  0  0  0  0
    1.1262   -0.6805   -0.0124 N   0  0  0  0  0  0  0  0  0  0  0  0
   -1.1891   -0.6883    0.0093 N   0  0  0  0  0  0  0  0  0  0  0  0
    3.6822    1.7440   -0.0239 N   0  0  0  0  0  0  0  0  0  0  0  0
    4.0084    2.6575   -0.0221 H   0  0  0  0  0  0  0  0  0  0  0  0
    4.4580    0.6212   -0.0373 C   0  0  0  0  0  0  0  0  0  0  0  0
    5.8427    0.6042   -0.0500 N   0  0  0  0  0  0  0  0  0  0  0  0
    2.2504   -3.1042   -1.6203 H   0  0  0  0  0  0  0  0  0  0  0  0
    2.6395   -3.8523   -4.0642 H   0  0  0  0  0  0  0  0  0  0  0  0
    6.3658   -1.8092   -1.7814 H   0  0  0  0  0  0  0  0  0  0  0  0
    5.0853   -1.9858    0.4569 H   0  0  0  0  0  0  0  0  0  0  0  0
    3.3919   -2.5339    0.4705 H   0  0  0  0  0  0  0  0  0  0  0  0
   -2.0280   -0.2014    0.0196 H   0  0  0  0  0  0  0  0  0  0  0  0
   -1.1913   -1.6583    0.0041 H   0  0  0  0  0  0  0  0  0  0  0  0
    6.3381    1.4382   -0.0501 H   0  0  0  0  0  0  0  0  0  0  0  0
    6.3173   -0.2418   -0.0588 H   0  0  0  0  0  0  0  0  0  0  0  0
  1  5  1  0  0  0  0
  1  2  2  0  0  0  0
  1 21  1  0  0  0  0
  2  3  1  0  0  0  0
  2 22  1  0  0  0  0
  3  4  1  0  0  0  0
  4  5  2  0  0  0  0
  4 23  1  0  0  0  0
  5  6  1  0  0  0  0
  6  7  1  0  0  0  0
  6 24  1  0  0  0  0
  6 25  1  0  0  0  0
  7 19  2  0  0  0  0
  7  8  1  0  0  0  0
  8 15  1  0  0  0  0
  8  9  2  0  0  0  0
  9 10  1  0  0  0  0
  9 17  1  0  0  0  0
 10 11  2  0  0  0  0
 10 12  1  0  0  0  0
 12 13  1  0  0  0  0
 12 14  1  0  0  0  0
 14 15  2  0  0  0  0
 14 16  1  0  0  0  0
 16 26  1  0  0  0  0
 16 27  1  0  0  0  0
 17 18  1  0  0  0  0
 17 19  1  0  0  0  0
 19 20  1  0  0  0  0
 20 28  1  0  0  0  0
 20 29  1  0  0  0  0
M  END
$$$$
ZINC00016939
  -OEChem-08230709403D

 27 29  0     0  0  0  0  0  0999 V2000
    3.2011   -2.9767   -2.1257 C   0  0  0  0  0  0  0  0  0  0  0  0
    3.3589   -3.3836   -3.4090 C   0  0  0  0  0  0  0  0  0  0  0  0
    5.0590   -2.9430   -3.7297 S   0  0  0  0  0  0  0  0  0  0  0  0
    5.4420   -2.2394   -2.1343 C   0  0  0  0  0  0  0  0  0  0  0  0
    4.2671   -2.3850   -1.4743 C   0  0  0  0  0  0  0  0  0  0  0  0
    4.1269   -1.9145   -0.0495 C   0  0  0  0  0  0  0  0  0  0  0  0
    3.6614   -0.4813   -0.0372 C   0  0  0  0  0  0  0  0  0  0  0  0
    2.3196   -0.0441   -0.0209 C   0  0  0  0  0  0  0  0  0  0  0  0
    2.3542    1.3556   -0.0132 C   0  0  0  0  0  0  0  0  0  0  0  0
    1.1378    2.0615    0.0023 C   0  0  0  0  0  0  0  0  0  0  0  0
    1.1254    3.2813    0.0086 O   0  0  0  0  0  0  0  0  0  0  0  0
   -0.0164    1.3598    0.0095 N   0  0  0  0  0  0  0  0  0  0  0  0
   -0.8913    1.8440    0.0204 H   0  0  0  0  0  0  0  0  0  0  0  0
    0.0021   -0.0041    0.0020 C   0  0  0  0  0  0  0  0  0  0  0  0
    1.1258   -0.6811   -0.0128 N   0  0  0  0  0  0  0  0  0  0  0  0
   -1.1893   -0.6880    0.0098 N   0  0  0  0  0  0  0  0  0  0  0  0
    3.6815    1.7326   -0.0248 N   0  0  0  0  0  0  0  0  0  0  0  0
    4.0099    2.6453   -0.0233 H   0  0  0  0  0  0  0  0  0  0  0  0
    4.4541    0.6113   -0.0392 C   0  0  0  0  0  0  0  0  0  0  0  0
    6.3449    0.5884   -0.0589 Br  0  0  0  0  0  0  0  0  0  0  0  0
    2.2555   -3.1090   -1.6211 H   0  0  0  0  0  0  0  0  0  0  0  0
    2.6434   -3.8564   -4.0654 H   0  0  0  0  0  0  0  0  0  0  0  0
    6.3693   -1.8095   -1.7854 H   0  0  0  0  0  0  0  0  0  0  0  0
    5.0909   -1.9878    0.4539 H   0  0  0  0  0  0  0  0  0  0  0  0
    3.3981   -2.5377    0.4689 H   0  0  0  0  0  0  0  0  0  0  0  0
   -2.0281   -0.2009    0.0204 H   0  0  0  0  0  0  0  0  0  0  0  0
   -1.1918   -1.6580    0.0046 H   0  0  0  0  0  0  0  0  0  0  0  0
  1  5  1  0  0  0  0
  1  2  2  0  0  0  0
  1 21  1  0  0  0  0
  2  3  1  0  0  0  0
  2 22  1  0  0  0  0
  3  4  1  0  0  0  0
  4  5  2  0  0  0  0
  4 23  1  0  0  0  0
  5  6  1  0  0  0  0
  6  7  1  0  0  0  0
  6 24  1  0  0  0  0
  6 25  1  0  0  0  0
  7 19  2  0  0  0  0
  7  8  1  0  0  0  0
  8 15  1  0  0  0  0
  8  9  2  0  0  0  0
  9 10  1  0  0  0  0
  9 17  1  0  0  0  0
 10 11  2  0  0  0  0
 10 12  1  0  0  0  0
 12 13  1  0  0  0  0
 12 14  1  0  0  0  0
 14 15  2  0  0  0  0
 14 16  1  0  0  0  0
 16 26  1  0  0  0  0
 16 27  1  0  0  0  0
 17 18  1  0  0  0  0
 17 19  1  0  0  0  0
 19 20  1  0  0  0  0
M  END
$$$$
ZINC00016939
  -OEChem-08230709403D

 27 29  0     0  0  0  0  0  0999 V2000
    3.2011   -2.9767   -2.1257 C   0  0  0  0  0  0  0  0  0  0  0  0
    3.3589   -3.3836   -3.4090 C   0  0  0  0  0  0  0  0  0  0  0  0
    5.0590   -2.9430   -3.7297 S   0  0  0  0  0  0  0  0  0  0  0  0
    5.4420   -2.2394   -2.1343 C   0  0  0  0  0  0  0  0  0  0  0  0
    4.2671   -2.3850   -1.4743 C   0  0  0  0  0  0  0  0  0  0  0  0
    4.1269   -1.9145   -0.0495 C   0  0  0  0  0  0  0  0  0  0  0  0
    3.6614   -0.4813   -0.0372 C   0  0  0  0  0  0  0  0  0  0  0  0
    2.3196   -0.0441   -0.0209 C   0  0  0  0  0  0  0  0  0  0  0  0
    2.3542    1.3556   -0.0132 C   0  0  0  0  0  0  0  0  0  0  0  0
    1.1378    2.0615    0.0023 C   0  0  0  0  0  0  0  0  0  0  0  0
    1.1254    3.2813    0.0086 O   0  0  0  0  0  0  0  0  0  0  0  0
   -0.0164    1.3598    0.0095 N   0  0  0  0  0  0  0  0  0  0  0  0
   -0.8913    1.8440    0.0204 H   0  0  0  0  0  0  0  0  0  0  0  0
    0.0021   -0.0041    0.0020 C   0  0  0  0  0  0  0  0  0  0  0  0
    1.1258   -0.6811   -0.0128 N   0  0  0  0  0  0  0  0  0  0  0  0
   -1.1893   -0.6880    0.0098 N   0  0  0  0  0  0  0  0  0  0  0  0
    3.6815    1.7326   -0.0248 N   0  0  0  0  0  0  0  0  0  0  0  0
    4.0099    2.6453   -0.0233 H   0  0  0  0  0  0  0  0  0  0  0  0
    4.4541    0.6113   -0.0392 C   0  0  0  0  0  0  0  0  0  0  0  0
    6.3449    0.5884   -0.0589 Br  0  0  0  0  0  0  0  0  0  0  0  0
    2.2555   -3.1090   -1.6211 H   0  0  0  0  0  0  0  0  0  0  0  0
    2.6434   -3.8564   -4.0654 H   0  0  0  0  0  0  0  0  0  0  0  0
    6.3693   -1.8095   -1.7854 H   0  0  0  0  0  0  0  0  0  0  0  0
    5.0909   -1.9878    0.4539 H   0  0  0  0  0  0  0  0  0  0  0  0
    3.3981   -2.5377    0.4689 H   0  0  0  0  0  0  0  0  0  0  0  0
   -2.0281   -0.2009    0.0204 H   0  0  0  0  0  0  0  0  0  0  0  0
   -1.1918   -1.6580    0.0046 H   0  0  0  0  0  0  0  0  0  0  0  0
  1  5  1  0  0  0  0
  1  2  2  0  0  0  0
  1 21  1  0  0  0  0
  2  3  1  0  0  0  0
  2 22  1  0  0  0  0
  3  4  1  0  0  0  0
  4  5  2  0  0  0  0
  4 23  1  0  0  0  0
  5  6  1  0  0  0  0
  6  7  1  0  0  0  0
  6 24  1  0  0  0  0
  6 25  1  0  0  0  0
  7 19  2  0  0  0  0
  7  8  1  0  0  0  0
  8 15  1  0  0  0  0
  8  9  2  0  0  0  0
  9 10  1  0  0  0  0
  9 17  1  0  0  0  0
 10 11  2  0  0  0  0
 10 12  1  0  0  0  0
 12 13  1  0  0  0  0
 12 14  1  0  0  0  0
 14 15  2  0  0  0  0
 14 16  1  0  0  0  0
 16 26  1  0  0  0  0
 16 27  1  0  0  0  0
 17 18  1  0  0  0  0
 17 19  1  0  0  0  0
 19 20  1  0  0  0  0
M  END
$$$$
ZINC00016940
  -OEChem-08230709403D

 27 29  0     0  0  0  0  0  0999 V2000
    3.2027   -2.9766   -2.1242 C   0  0  0  0  0  0  0  0  0  0  0  0
    3.3616   -3.3837   -3.4074 C   0  0  0  0  0  0  0  0  0  0  0  0
    5.0619   -2.9431   -3.7267 S   0  0  0  0  0  0  0  0  0  0  0  0
    5.4436   -2.2393   -2.1310 C   0  0  0  0  0  0  0  0  0  0  0  0
    4.2681   -2.3849   -1.4720 C   0  0  0  0  0  0  0  0  0  0  0  0
    4.1267   -1.9143   -0.0473 C   0  0  0  0  0  0  0  0  0  0  0  0
    3.6613   -0.4810   -0.0356 C   0  0  0  0  0  0  0  0  0  0  0  0
    2.3196   -0.0439   -0.0204 C   0  0  0  0  0  0  0  0  0  0  0  0
    2.3540    1.3559   -0.0132 C   0  0  0  0  0  0  0  0  0  0  0  0
    1.1377    2.0615    0.0023 C   0  0  0  0  0  0  0  0  0  0  0  0
    1.1253    3.2814    0.0086 O   0  0  0  0  0  0  0  0  0  0  0  0
   -0.0164    1.3598    0.0095 N   0  0  0  0  0  0  0  0  0  0  0  0
   -0.8913    1.8440    0.0204 H   0  0  0  0  0  0  0  0  0  0  0  0
    0.0021   -0.0041    0.0020 C   0  0  0  0  0  0  0  0  0  0  0  0
    1.1258   -0.6810   -0.0124 N   0  0  0  0  0  0  0  0  0  0  0  0
   -1.1893   -0.6880    0.0093 N   0  0  0  0  0  0  0  0  0  0  0  0
    3.6816    1.7332   -0.0239 N   0  0  0  0  0  0  0  0  0  0  0  0
    4.0099    2.6459   -0.0227 H   0  0  0  0  0  0  0  0  0  0  0  0
    4.4543    0.6119   -0.0374 C   0  0  0  0  0  0  0  0  0  0  0  0
    6.1901    0.5909   -0.0541 Cl  0  0  0  0  0  0  0  0  0  0  0  0
    2.2567   -3.1089   -1.6204 H   0  0  0  0  0  0  0  0  0  0  0  0
    2.6466   -3.8566   -4.0643 H   0  0  0  0  0  0  0  0  0  0  0  0
    6.3707   -1.8095   -1.7814 H   0  0  0  0  0  0  0  0  0  0  0  0
    5.0904   -1.9874    0.4568 H   0  0  0  0  0  0  0  0  0  0  0  0
    3.3975   -2.5374    0.4705 H   0  0  0  0  0  0  0  0  0  0  0  0
   -2.0281   -0.2009    0.0196 H   0  0  0  0  0  0  0  0  0  0  0  0
   -1.1918   -1.6580    0.0041 H   0  0  0  0  0  0  0  0  0  0  0  0
  1  5  1  0  0  0  0
  1  2  2  0  0  0  0
  1 21  1  0  0  0  0
  2  3  1  0  0  0  0
  2 22  1  0  0  0  0
  3  4  1  0  0  0  0
  4  5  2  0  0  0  0
  4 23  1  0  0  0  0
  5  6  1  0  0  0  0
  6  7  1  0  0  0  0
  6 24  1  0  0  0  0
  6 25  1  0  0  0  0
  7 19  2  0  0  0  0
  7  8  1  0  0  0  0
  8 15  1  0  0  0  0
  8  9  2  0  0  0  0
  9 10  1  0  0  0  0
  9 17  1  0  0  0  0
 10 11  2  0  0  0  0
 10 12  1  0  0  0  0
 12 13  1  0  0  0  0
 12 14  1  0  0  0  0
 14 15  2  0  0  0  0
 14 16  1  0  0  0  0
 16 26  1  0  0  0  0
 16 27  1  0  0  0  0
 17 18  1  0  0  0  0
 17 19  1  0  0  0  0
 19 20  1  0  0  0  0
M  END
$$$$
ZINC00016940
  -OEChem-08230709403D

 27 29  0     0  0  0  0  0  0999 V2000
    3.2027   -2.9766   -2.1242 C   0  0  0  0  0  0  0  0  0  0  0  0
    3.3616   -3.3837   -3.4074 C   0  0  0  0  0  0  0  0  0  0  0  0
    5.0619   -2.9431   -3.7267 S   0  0  0  0  0  0  0  0  0  0  0  0
    5.4436   -2.2393   -2.1310 C   0  0  0  0  0  0  0  0  0  0  0  0
    4.2681   -2.3849   -1.4720 C   0  0  0  0  0  0  0  0  0  0  0  0
    4.1267   -1.9143   -0.0473 C   0  0  0  0  0  0  0  0  0  0  0  0
    3.6613   -0.4810   -0.0356 C   0  0  0  0  0  0  0  0  0  0  0  0
    2.3196   -0.0439   -0.0204 C   0  0  0  0  0  0  0  0  0  0  0  0
    2.3540    1.3559   -0.0132 C   0  0  0  0  0  0  0  0  0  0  0  0
    1.1377    2.0615    0.0023 C   0  0  0  0  0  0  0  0  0  0  0  0
    1.1253    3.2814    0.0086 O   0  0  0  0  0  0  0  0  0  0  0  0
   -0.0164    1.3598    0.0095 N   0  0  0  0  0  0  0  0  0  0  0  0
   -0.8913    1.8440    0.0204 H   0  0  0  0  0  0  0  0  0  0  0  0
    0.0021   -0.0041    0.0020 C   0  0  0  0  0  0  0  0  0  0  0  0
    1.1258   -0.6810   -0.0124 N   0  0  0  0  0  0  0  0  0  0  0  0
   -1.1893   -0.6880    0.0093 N   0  0  0  0  0  0  0  0  0  0  0  0
    3.6816    1.7332   -0.0239 N   0  0  0  0  0  0  0  0  0  0  0  0
    4.0099    2.6459   -0.0227 H   0  0  0  0  0  0  0  0  0  0  0  0
    4.4543    0.6119   -0.0374 C   0  0  0  0  0  0  0  0  0  0  0  0
    6.1901    0.5909   -0.0541 Cl  0  0  0  0  0  0  0  0  0  0  0  0
    2.2567   -3.1089   -1.6204 H   0  0  0  0  0  0  0  0  0  0  0  0
    2.6466   -3.8566   -4.0643 H   0  0  0  0  0  0  0  0  0  0  0  0
    6.3707   -1.8095   -1.7814 H   0  0  0  0  0  0  0  0  0  0  0  0
    5.0904   -1.9874    0.4568 H   0  0  0  0  0  0  0  0  0  0  0  0
    3.3975   -2.5374    0.4705 H   0  0  0  0  0  0  0  0  0  0  0  0
   -2.0281   -0.2009    0.0196 H   0  0  0  0  0  0  0  0  0  0  0  0
   -1.1918   -1.6580    0.0041 H   0  0  0  0  0  0  0  0  0  0  0  0
  1  5  1  0  0  0  0
  1  2  2  0  0  0  0
  1 21  1  0  0  0  0
  2  3  1  0  0  0  0
  2 22  1  0  0  0  0
  3  4  1  0  0  0  0
  4  5  2  0  0  0  0
  4 23  1  0  0  0  0
  5  6  1  0  0  0  0
  6  7  1  0  0  0  0
  6 24  1  0  0  0  0
  6 25  1  0  0  0  0
  7 19  2  0  0  0  0
  7  8  1  0  0  0  0
  8 15  1  0  0  0  0
  8  9  2  0  0  0  0
  9 10  1  0  0  0  0
  9 17  1  0  0  0  0
 10 11  2  0  0  0  0
 10 12  1  0  0  0  0
 12 13  1  0  0  0  0
 12 14  1  0  0  0  0
 14 15  2  0  0  0  0
 14 16  1  0  0  0  0
 16 26  1  0  0  0  0
 16 27  1  0  0  0  0
 17 18  1  0  0  0  0
 17 19  1  0  0  0  0
 19 20  1  0  0  0  0
M  END
$$$$
ZINC00017532
  -OEChem-08230709403D

 34 36  0     1  0  0  0  0  0999 V2000
    3.2764   -0.9649    3.4577 C   0  0  0  0  0  0  0  0  0  0  0  0
    4.0001    0.1922    3.2377 C   0  0  0  0  0  0  0  0  0  0  0  0
    3.7524    0.9594    2.1148 C   0  0  0  0  0  0  0  0  0  0  0  0
    2.7816    0.5690    1.2114 C   0  0  0  0  0  0  0  0  0  0  0  0
    2.0546   -0.5855    1.4338 C   0  0  0  0  0  0  0  0  0  0  0  0
    2.3054   -1.3550    2.5545 C   0  0  0  0  0  0  0  0  0  0  0  0
    2.5116    1.4054   -0.0128 C   0  0  1  0  0  0  0  0  0  0  0  0
    3.1735    2.2714   -0.0145 H   0  0  0  0  0  0  0  0  0  0  0  0
    2.7641    0.5681   -1.2683 C   0  0  0  0  0  0  0  0  0  0  0  0
    2.6214    1.3922   -2.4270 O   0  0  0  0  0  0  0  0  0  0  0  0
    1.0778    1.8690    0.0018 C   0  0  0  0  0  0  0  0  0  0  0  0
   -0.0126    1.0758    0.0080 C   0  0  0  0  0  0  0  0  0  0  0  0
   -1.1347    1.8464    0.0169 N   0  0  0  0  0  0  0  0  0  0  0  0
   -2.0469    1.5164    0.0189 H   0  0  0  0  0  0  0  0  0  0  0  0
   -0.7607    3.1736    0.0250 C   0  0  0  0  0  0  0  0  0  0  0  0
    0.6385    3.2110    0.0123 C   0  0  0  0  0  0  0  0  0  0  0  0
    1.2716    4.4008    0.0123 N   0  0  0  0  0  0  0  0  0  0  0  0
    0.5953    5.5248    0.0236 C   0  0  0  0  0  0  0  0  0  0  0  0
   -0.7687    5.5443    0.0366 N   0  0  0  0  0  0  0  0  0  0  0  0
   -1.2529    6.4192    0.0456 H   0  0  0  0  0  0  0  0  0  0  0  0
   -1.4695    4.3893    0.0374 C   0  0  0  0  0  0  0  0  0  0  0  0
   -2.6892    4.4000    0.0483 O   0  0  0  0  0  0  0  0  0  0  0  0
    1.2800    6.7158    0.0227 N   0  0  0  0  0  0  0  0  0  0  0  0
    3.4700   -1.5643    4.3350 H   0  0  0  0  0  0  0  0  0  0  0  0
    4.7587    0.4970    3.9433 H   0  0  0  0  0  0  0  0  0  0  0  0
    4.3175    1.8636    1.9431 H   0  0  0  0  0  0  0  0  0  0  0  0
    1.2932   -0.8882    0.7302 H   0  0  0  0  0  0  0  0  0  0  0  0
    1.7402   -2.2592    2.7262 H   0  0  0  0  0  0  0  0  0  0  0  0
    3.7739    0.1593   -1.2354 H   0  0  0  0  0  0  0  0  0  0  0  0
    2.0429   -0.2480   -1.3119 H   0  0  0  0  0  0  0  0  0  0  0  0
    2.7679    0.9262   -3.2616 H   0  0  0  0  0  0  0  0  0  0  0  0
    0.0021   -0.0041    0.0020 H   0  0  0  0  0  0  0  0  0  0  0  0
    0.7934    7.5549    0.0312 H   0  0  0  0  0  0  0  0  0  0  0  0
    2.2499    6.7176    0.0135 H   0  0  0  0  0  0  0  0  0  0  0  0
  1  6  2  0  0  0  0
  1  2  1  0  0  0  0
  1 24  1  0  0  0  0
  2  3  2  0  0  0  0
  2 25  1  0  0  0  0
  3  4  1  0  0  0  0
  3 26  1  0  0  0  0
  4  5  2  0  0  0  0
  4  7  1  0  0  0  0
  5  6  1  0  0  0  0
  5 27  1  0  0  0  0
  6 28  1  0  0  0  0
  7  8  1  0  0  0  0
  7  9  1  0  0  0  0
  7 11  1  0  0  0  0
  9 10  1  0  0  0  0
  9 29  1  0  0  0  0
  9 30  1  0  0  0  0
 10 31  1  0  0  0  0
 11 16  1  0  0  0  0
 11 12  2  0  0  0  0
 12 13  1  0  0  0  0
 12 32  1  0  0  0  0
 13 14  1  0  0  0  0
 13 15  1  0  0  0  0
 15 21  1  0  0  0  0
 15 16  2  0  0  0  0
 16 17  1  0  0  0  0
 17 18  2  0  0  0  0
 18 19  1  0  0  0  0
 18 23  1  0  0  0  0
 19 20  1  0  0  0  0
 19 21  1  0  0  0  0
 21 22  2  0  0  0  0
 23 33  1  0  0  0  0
 23 34  1  0  0  0  0
M  END
$$$$
ZINC00017532
  -OEChem-08230709403D

 34 36  0     1  0  0  0  0  0999 V2000
    3.2764   -0.9649    3.4577 C   0  0  0  0  0  0  0  0  0  0  0  0
    4.0001    0.1922    3.2377 C   0  0  0  0  0  0  0  0  0  0  0  0
    3.7524    0.9594    2.1148 C   0  0  0  0  0  0  0  0  0  0  0  0
    2.7816    0.5690    1.2114 C   0  0  0  0  0  0  0  0  0  0  0  0
    2.0546   -0.5855    1.4338 C   0  0  0  0  0  0  0  0  0  0  0  0
    2.3054   -1.3550    2.5545 C   0  0  0  0  0  0  0  0  0  0  0  0
    2.5116    1.4054   -0.0128 C   0  0  1  0  0  0  0  0  0  0  0  0
    3.1735    2.2714   -0.0145 H   0  0  0  0  0  0  0  0  0  0  0  0
    2.7641    0.5681   -1.2683 C   0  0  0  0  0  0  0  0  0  0  0  0
    2.6214    1.3922   -2.4270 O   0  0  0  0  0  0  0  0  0  0  0  0
    1.0778    1.8690    0.0018 C   0  0  0  0  0  0  0  0  0  0  0  0
   -0.0126    1.0758    0.0080 C   0  0  0  0  0  0  0  0  0  0  0  0
   -1.1347    1.8464    0.0169 N   0  0  0  0  0  0  0  0  0  0  0  0
   -2.0469    1.5164    0.0189 H   0  0  0  0  0  0  0  0  0  0  0  0
   -0.7607    3.1736    0.0250 C   0  0  0  0  0  0  0  0  0  0  0  0
    0.6385    3.2110    0.0123 C   0  0  0  0  0  0  0  0  0  0  0  0
    1.2716    4.4008    0.0123 N   0  0  0  0  0  0  0  0  0  0  0  0
    0.5953    5.5248    0.0236 C   0  0  0  0  0  0  0  0  0  0  0  0
   -0.7687    5.5443    0.0366 N   0  0  0  0  0  0  0  0  0  0  0  0
   -1.2529    6.4192    0.0456 H   0  0  0  0  0  0  0  0  0  0  0  0
   -1.4695    4.3893    0.0374 C   0  0  0  0  0  0  0  0  0  0  0  0
   -2.6892    4.4000    0.0483 O   0  0  0  0  0  0  0  0  0  0  0  0
    1.2800    6.7158    0.0227 N   0  0  0  0  0  0  0  0  0  0  0  0
    3.4700   -1.5643    4.3350 H   0  0  0  0  0  0  0  0  0  0  0  0
    4.7587    0.4970    3.9433 H   0  0  0  0  0  0  0  0  0  0  0  0
    4.3175    1.8636    1.9431 H   0  0  0  0  0  0  0  0  0  0  0  0
    1.2932   -0.8882    0.7302 H   0  0  0  0  0  0  0  0  0  0  0  0
    1.7402   -2.2592    2.7262 H   0  0  0  0  0  0  0  0  0  0  0  0
    3.7739    0.1593   -1.2354 H   0  0  0  0  0  0  0  0  0  0  0  0
    2.0429   -0.2480   -1.3119 H   0  0  0  0  0  0  0  0  0  0  0  0
    2.7679    0.9262   -3.2616 H   0  0  0  0  0  0  0  0  0  0  0  0
    0.0021   -0.0041    0.0020 H   0  0  0  0  0  0  0  0  0  0  0  0
    0.7934    7.5549    0.0312 H   0  0  0  0  0  0  0  0  0  0  0  0
    2.2499    6.7176    0.0135 H   0  0  0  0  0  0  0  0  0  0  0  0
  1  6  2  0  0  0  0
  1  2  1  0  0  0  0
  1 24  1  0  0  0  0
  2  3  2  0  0  0  0
  2 25  1  0  0  0  0
  3  4  1  0  0  0  0
  3 26  1  0  0  0  0
  4  5  2  0  0  0  0
  4  7  1  0  0  0  0
  5  6  1  0  0  0  0
  5 27  1  0  0  0  0
  6 28  1  0  0  0  0
  7  8  1  0  0  0  0
  7  9  1  0  0  0  0
  7 11  1  0  0  0  0
  9 10  1  0  0  0  0
  9 29  1  0  0  0  0
  9 30  1  0  0  0  0
 10 31  1  0  0  0  0
 11 16  1  0  0  0  0
 11 12  2  0  0  0  0
 12 13  1  0  0  0  0
 12 32  1  0  0  0  0
 13 14  1  0  0  0  0
 13 15  1  0  0  0  0
 15 21  1  0  0  0  0
 15 16  2  0  0  0  0
 16 17  1  0  0  0  0
 17 18  2  0  0  0  0
 18 19  1  0  0  0  0
 18 23  1  0  0  0  0
 19 20  1  0  0  0  0
 19 21  1  0  0  0  0
 21 22  2  0  0  0  0
 23 33  1  0  0  0  0
 23 34  1  0  0  0  0
M  END
$$$$
ZINC00017533
  -OEChem-08230709403D

 38 40  0     1  0  0  0  0  0999 V2000
    6.8996   -0.4682   -2.9670 C   0  0  0  0  0  0  0  0  0  0  0  0
    6.2358    0.3211   -1.9779 O   0  0  0  0  0  0  0  0  0  0  0  0
    6.1904    1.6630   -2.1880 C   0  0  0  0  0  0  0  0  0  0  0  0
    6.7681    2.2083   -3.3255 C   0  0  0  0  0  0  0  0  0  0  0  0
    6.7255    3.5731   -3.5339 C   0  0  0  0  0  0  0  0  0  0  0  0
    6.1028    4.3952   -2.6127 C   0  0  0  0  0  0  0  0  0  0  0  0
    5.5218    3.8538   -1.4811 C   0  0  0  0  0  0  0  0  0  0  0  0
    5.5617    2.4893   -1.2681 C   0  0  0  0  0  0  0  0  0  0  0  0
    4.9282    1.8997   -0.0343 C   0  0  1  0  0  0  0  0  0  0  0  0
    5.0594    0.8177   -0.0402 H   0  0  0  0  0  0  0  0  0  0  0  0
    5.5942    2.4875    1.2114 C   0  0  0  0  0  0  0  0  0  0  0  0
    5.0754    1.8443    2.3773 O   0  0  0  0  0  0  0  0  0  0  0  0
    3.4573    2.2273   -0.0195 C   0  0  0  0  0  0  0  0  0  0  0  0
    2.9199    3.4638   -0.0084 C   0  0  0  0  0  0  0  0  0  0  0  0
    1.5619    3.3687    0.0045 N   0  0  0  0  0  0  0  0  0  0  0  0
    0.9432    4.1157    0.0142 H   0  0  0  0  0  0  0  0  0  0  0  0
    1.2112    2.0352    0.0014 C   0  0  0  0  0  0  0  0  0  0  0  0
    2.3981    1.2935   -0.0139 C   0  0  0  0  0  0  0  0  0  0  0  0
    2.3404   -0.0530   -0.0201 N   0  0  0  0  0  0  0  0  0  0  0  0
    1.1876   -0.6789   -0.0125 C   0  0  0  0  0  0  0  0  0  0  0  0
    0.0021   -0.0041    0.0020 N   0  0  0  0  0  0  0  0  0  0  0  0
   -0.8589   -0.5126    0.0072 H   0  0  0  0  0  0  0  0  0  0  0  0
   -0.0162    1.3468    0.0094 C   0  0  0  0  0  0  0  0  0  0  0  0
   -1.0730    1.9561    0.0178 O   0  0  0  0  0  0  0  0  0  0  0  0
    1.1737   -2.0526   -0.0197 N   0  0  0  0  0  0  0  0  0  0  0  0
    6.4027   -0.3390   -3.9285 H   0  0  0  0  0  0  0  0  0  0  0  0
    7.9387   -0.1493   -3.0492 H   0  0  0  0  0  0  0  0  0  0  0  0
    6.8638   -1.5186   -2.6778 H   0  0  0  0  0  0  0  0  0  0  0  0
    7.2543    1.5666   -4.0454 H   0  0  0  0  0  0  0  0  0  0  0  0
    7.1787    3.9985   -4.4171 H   0  0  0  0  0  0  0  0  0  0  0  0
    6.0705    5.4621   -2.7774 H   0  0  0  0  0  0  0  0  0  0  0  0
    5.0360    4.4980   -0.7631 H   0  0  0  0  0  0  0  0  0  0  0  0
    6.6711    2.3280    1.1573 H   0  0  0  0  0  0  0  0  0  0  0  0
    5.3874    3.5565    1.2638 H   0  0  0  0  0  0  0  0  0  0  0  0
    5.4538    2.1678    3.2063 H   0  0  0  0  0  0  0  0  0  0  0  0
    3.4802    4.3871   -0.0091 H   0  0  0  0  0  0  0  0  0  0  0  0
    0.3288   -2.5291   -0.0146 H   0  0  0  0  0  0  0  0  0  0  0  0
    2.0087   -2.5461   -0.0300 H   0  0  0  0  0  0  0  0  0  0  0  0
  1  2  1  0  0  0  0
  1 26  1  0  0  0  0
  1 27  1  0  0  0  0
  1 28  1  0  0  0  0
  2  3  1  0  0  0  0
  3  8  2  0  0  0  0
  3  4  1  0  0  0  0
  4  5  2  0  0  0  0
  4 29  1  0  0  0  0
  5  6  1  0  0  0  0
  5 30  1  0  0  0  0
  6  7  2  0  0  0  0
  6 31  1  0  0  0  0
  7  8  1  0  0  0  0
  7 32  1  0  0  0  0
  8  9  1  0  0  0  0
  9 10  1  0  0  0  0
  9 11  1  0  0  0  0
  9 13  1  0  0  0  0
 11 12  1  0  0  0  0
 11 33  1  0  0  0  0
 11 34  1  0  0  0  0
 12 35  1  0  0  0  0
 13 18  1  0  0  0  0
 13 14  2  0  0  0  0
 14 15  1  0  0  0  0
 14 36  1  0  0  0  0
 15 16  1  0  0  0  0
 15 17  1  0  0  0  0
 17 23  1  0  0  0  0
 17 18  2  0  0  0  0
 18 19  1  0  0  0  0
 19 20  2  0  0  0  0
 20 21  1  0  0  0  0
 20 25  1  0  0  0  0
 21 22  1  0  0  0  0
 21 23  1  0  0  0  0
 23 24  2  0  0  0  0
 25 37  1  0  0  0  0
 25 38  1  0  0  0  0
M  END
$$$$
ZINC00017533
  -OEChem-08230709403D

 38 40  0     1  0  0  0  0  0999 V2000
    6.8996   -0.4682   -2.9670 C   0  0  0  0  0  0  0  0  0  0  0  0
    6.2358    0.3211   -1.9779 O   0  0  0  0  0  0  0  0  0  0  0  0
    6.1904    1.6630   -2.1880 C   0  0  0  0  0  0  0  0  0  0  0  0
    6.7681    2.2083   -3.3255 C   0  0  0  0  0  0  0  0  0  0  0  0
    6.7255    3.5731   -3.5339 C   0  0  0  0  0  0  0  0  0  0  0  0
    6.1028    4.3952   -2.6127 C   0  0  0  0  0  0  0  0  0  0  0  0
    5.5218    3.8538   -1.4811 C   0  0  0  0  0  0  0  0  0  0  0  0
    5.5617    2.4893   -1.2681 C   0  0  0  0  0  0  0  0  0  0  0  0
    4.9282    1.8997   -0.0343 C   0  0  1  0  0  0  0  0  0  0  0  0
    5.0594    0.8177   -0.0402 H   0  0  0  0  0  0  0  0  0  0  0  0
    5.5942    2.4875    1.2114 C   0  0  0  0  0  0  0  0  0  0  0  0
    5.0754    1.8443    2.3773 O   0  0  0  0  0  0  0  0  0  0  0  0
    3.4573    2.2273   -0.0195 C   0  0  0  0  0  0  0  0  0  0  0  0
    2.9199    3.4638   -0.0084 C   0  0  0  0  0  0  0  0  0  0  0  0
    1.5619    3.3687    0.0045 N   0  0  0  0  0  0  0  0  0  0  0  0
    0.9432    4.1157    0.0142 H   0  0  0  0  0  0  0  0  0  0  0  0
    1.2112    2.0352    0.0014 C   0  0  0  0  0  0  0  0  0  0  0  0
    2.3981    1.2935   -0.0139 C   0  0  0  0  0  0  0  0  0  0  0  0
    2.3404   -0.0530   -0.0201 N   0  0  0  0  0  0  0  0  0  0  0  0
    1.1876   -0.6789   -0.0125 C   0  0  0  0  0  0  0  0  0  0  0  0
    0.0021   -0.0041    0.0020 N   0  0  0  0  0  0  0  0  0  0  0  0
   -0.8589   -0.5126    0.0072 H   0  0  0  0  0  0  0  0  0  0  0  0
   -0.0162    1.3468    0.0094 C   0  0  0  0  0  0  0  0  0  0  0  0
   -1.0730    1.9561    0.0178 O   0  0  0  0  0  0  0  0  0  0  0  0
    1.1737   -2.0526   -0.0197 N   0  0  0  0  0  0  0  0  0  0  0  0
    6.4027   -0.3390   -3.9285 H   0  0  0  0  0  0  0  0  0  0  0  0
    7.9387   -0.1493   -3.0492 H   0  0  0  0  0  0  0  0  0  0  0  0
    6.8638   -1.5186   -2.6778 H   0  0  0  0  0  0  0  0  0  0  0  0
    7.2543    1.5666   -4.0454 H   0  0  0  0  0  0  0  0  0  0  0  0
    7.1787    3.9985   -4.4171 H   0  0  0  0  0  0  0  0  0  0  0  0
    6.0705    5.4621   -2.7774 H   0  0  0  0  0  0  0  0  0  0  0  0
    5.0360    4.4980   -0.7631 H   0  0  0  0  0  0  0  0  0  0  0  0
    6.6711    2.3280    1.1573 H   0  0  0  0  0  0  0  0  0  0  0  0
    5.3874    3.5565    1.2638 H   0  0  0  0  0  0  0  0  0  0  0  0
    5.4538    2.1678    3.2063 H   0  0  0  0  0  0  0  0  0  0  0  0
    3.4802    4.3871   -0.0091 H   0  0  0  0  0  0  0  0  0  0  0  0
    0.3288   -2.5291   -0.0146 H   0  0  0  0  0  0  0  0  0  0  0  0
    2.0087   -2.5461   -0.0300 H   0  0  0  0  0  0  0  0  0  0  0  0
  1  2  1  0  0  0  0
  1 26  1  0  0  0  0
  1 27  1  0  0  0  0
  1 28  1  0  0  0  0
  2  3  1  0  0  0  0
  3  8  2  0  0  0  0
  3  4  1  0  0  0  0
  4  5  2  0  0  0  0
  4 29  1  0  0  0  0
  5  6  1  0  0  0  0
  5 30  1  0  0  0  0
  6  7  2  0  0  0  0
  6 31  1  0  0  0  0
  7  8  1  0  0  0  0
  7 32  1  0  0  0  0
  8  9  1  0  0  0  0
  9 10  1  0  0  0  0
  9 11  1  0  0  0  0
  9 13  1  0  0  0  0
 11 12  1  0  0  0  0
 11 33  1  0  0  0  0
 11 34  1  0  0  0  0
 12 35  1  0  0  0  0
 13 18  1  0  0  0  0
 13 14  2  0  0  0  0
 14 15  1  0  0  0  0
 14 36  1  0  0  0  0
 15 16  1  0  0  0  0
 15 17  1  0  0  0  0
 17 23  1  0  0  0  0
 17 18  2  0  0  0  0
 18 19  1  0  0  0  0
 19 20  2  0  0  0  0
 20 21  1  0  0  0  0
 20 25  1  0  0  0  0
 21 22  1  0  0  0  0
 21 23  1  0  0  0  0
 23 24  2  0  0  0  0
 25 37  1  0  0  0  0
 25 38  1  0  0  0  0
M  END
$$$$
ZINC00391097
  -OEChem-08230709403D

 14 15  0     0  0  0  0  0  0999 V2000
    1.2369   -0.4289   -0.0120 C   0  0  0  0  0  0  0  0  0  0  0  0
    2.0848    0.6207   -0.0145 N   0  0  0  0  0  0  0  0  0  0  0  0
    3.0838    0.5772   -0.0243 H   0  0  0  0  0  0  0  0  0  0  0  0
    1.3154    1.7637   -0.0010 C   0  0  0  0  0  0  0  0  0  0  0  0
    1.5881    3.1450    0.0038 C   0  0  0  0  0  0  0  0  0  0  0  0
    2.7364    3.5556   -0.0054 O   0  0  0  0  0  0  0  0  0  0  0  0
    0.5448    4.0046    0.0184 N   0  0  0  0  0  0  0  0  0  0  0  0
    0.7132    4.9903    0.0221 H   0  0  0  0  0  0  0  0  0  0  0  0
   -0.7298    3.5381    0.0280 C   0  0  0  0  0  0  0  0  0  0  0  0
   -1.0033    2.2653    0.0287 N   0  0  0  0  0  0  0  0  0  0  0  0
   -0.0161    1.3388    0.0094 C   0  0  0  0  0  0  0  0  0  0  0  0
    0.0021   -0.0041    0.0020 N   0  0  0  0  0  0  0  0  0  0  0  0
    1.5353   -1.4668   -0.0205 H   0  0  0  0  0  0  0  0  0  0  0  0
   -1.5447    4.2468    0.0400 H   0  0  0  0  0  0  0  0  0  0  0  0
  1 12  2  0  0  0  0
  1  2  1  0  0  0  0
  1 13  1  0  0  0  0
  2  3  1  0  0  0  0
  2  4  1  0  0  0  0
  4 11  2  0  0  0  0
  4  5  1  0  0  0  0
  5  6  2  0  0  0  0
  5  7  1  0  0  0  0
  7  8  1  0  0  0  0
  7  9  1  0  0  0  0
  9 10  2  0  0  0  0
  9 14  1  0  0  0  0
 10 11  1  0  0  0  0
 11 12  1  0  0  0  0
M  END
$$$$
ZINC00391097
  -OEChem-08230709403D

 14 15  0     0  0  0  0  0  0999 V2000
    1.2369   -0.4289   -0.0120 C   0  0  0  0  0  0  0  0  0  0  0  0
    2.0848    0.6207   -0.0145 N   0  0  0  0  0  0  0  0  0  0  0  0
    3.0838    0.5772   -0.0243 H   0  0  0  0  0  0  0  0  0  0  0  0
    1.3154    1.7637   -0.0010 C   0  0  0  0  0  0  0  0  0  0  0  0
    1.5881    3.1450    0.0038 C   0  0  0  0  0  0  0  0  0  0  0  0
    2.7364    3.5556   -0.0054 O   0  0  0  0  0  0  0  0  0  0  0  0
    0.5448    4.0046    0.0184 N   0  0  0  0  0  0  0  0  0  0  0  0
    0.7132    4.9903    0.0221 H   0  0  0  0  0  0  0  0  0  0  0  0
   -0.7298    3.5381    0.0280 C   0  0  0  0  0  0  0  0  0  0  0  0
   -1.0033    2.2653    0.0287 N   0  0  0  0  0  0  0  0  0  0  0  0
   -0.0161    1.3388    0.0094 C   0  0  0  0  0  0  0  0  0  0  0  0
    0.0021   -0.0041    0.0020 N   0  0  0  0  0  0  0  0  0  0  0  0
    1.5353   -1.4668   -0.0205 H   0  0  0  0  0  0  0  0  0  0  0  0
   -1.5447    4.2468    0.0400 H   0  0  0  0  0  0  0  0  0  0  0  0
  1 12  2  0  0  0  0
  1  2  1  0  0  0  0
  1 13  1  0  0  0  0
  2  3  1  0  0  0  0
  2  4  1  0  0  0  0
  4 11  2  0  0  0  0
  4  5  1  0  0  0  0
  5  6  2  0  0  0  0
  5  7  1  0  0  0  0
  7  8  1  0  0  0  0
  7  9  1  0  0  0  0
  9 10  2  0  0  0  0
  9 14  1  0  0  0  0
 10 11  1  0  0  0  0
 11 12  1  0  0  0  0
M  END
$$$$
ZINC00833811
  -OEChem-08230709403D

 27 29  0     0  0  0  0  0  0999 V2000
    3.2025   -2.9771   -2.1246 C   0  0  0  0  0  0  0  0  0  0  0  0
    3.3609   -3.3842   -3.4078 C   0  0  0  0  0  0  0  0  0  0  0  0
    5.0611   -2.9436   -3.7277 S   0  0  0  0  0  0  0  0  0  0  0  0
    5.4433   -2.2398   -2.1321 C   0  0  0  0  0  0  0  0  0  0  0  0
    4.2681   -2.3854   -1.4726 C   0  0  0  0  0  0  0  0  0  0  0  0
    4.1271   -1.9148   -0.0480 C   0  0  0  0  0  0  0  0  0  0  0  0
    3.6616   -0.4815   -0.0361 C   0  0  0  0  0  0  0  0  0  0  0  0
    2.3196   -0.0443   -0.0204 C   0  0  0  0  0  0  0  0  0  0  0  0
    2.3544    1.3553   -0.0132 C   0  0  0  0  0  0  0  0  0  0  0  0
    1.1378    2.0614    0.0023 C   0  0  0  0  0  0  0  0  0  0  0  0
    1.1255    3.2812    0.0086 O   0  0  0  0  0  0  0  0  0  0  0  0
   -0.0164    1.3598    0.0095 N   0  0  0  0  0  0  0  0  0  0  0  0
   -0.8913    1.8440    0.0204 H   0  0  0  0  0  0  0  0  0  0  0  0
    0.0021   -0.0041    0.0020 C   0  0  0  0  0  0  0  0  0  0  0  0
    1.1258   -0.6811   -0.0124 N   0  0  0  0  0  0  0  0  0  0  0  0
   -1.1894   -0.6879    0.0093 N   0  0  0  0  0  0  0  0  0  0  0  0
    3.6814    1.7319   -0.0244 N   0  0  0  0  0  0  0  0  0  0  0  0
    4.0100    2.6446   -0.0230 H   0  0  0  0  0  0  0  0  0  0  0  0
    4.4540    0.6107   -0.0381 C   0  0  0  0  0  0  0  0  0  0  0  0
    6.5487    0.5853   -0.0600 I   0  0  0  0  0  0  0  0  0  0  0  0
    2.2566   -3.1094   -1.6204 H   0  0  0  0  0  0  0  0  0  0  0  0
    2.6457   -3.8571   -4.0645 H   0  0  0  0  0  0  0  0  0  0  0  0
    6.3705   -1.8099   -1.7828 H   0  0  0  0  0  0  0  0  0  0  0  0
    5.0909   -1.9879    0.4559 H   0  0  0  0  0  0  0  0  0  0  0  0
    3.3981   -2.5379    0.4701 H   0  0  0  0  0  0  0  0  0  0  0  0
   -2.0281   -0.2008    0.0196 H   0  0  0  0  0  0  0  0  0  0  0  0
   -1.1919   -1.6579    0.0041 H   0  0  0  0  0  0  0  0  0  0  0  0
  1  5  1  0  0  0  0
  1  2  2  0  0  0  0
  1 21  1  0  0  0  0
  2  3  1  0  0  0  0
  2 22  1  0  0  0  0
  3  4  1  0  0  0  0
  4  5  2  0  0  0  0
  4 23  1  0  0  0  0
  5  6  1  0  0  0  0
  6  7  1  0  0  0  0
  6 24  1  0  0  0  0
  6 25  1  0  0  0  0
  7 19  2  0  0  0  0
  7  8  1  0  0  0  0
  8 15  1  0  0  0  0
  8  9  2  0  0  0  0
  9 10  1  0  0  0  0
  9 17  1  0  0  0  0
 10 11  2  0  0  0  0
 10 12  1  0  0  0  0
 12 13  1  0  0  0  0
 12 14  1  0  0  0  0
 14 15  2  0  0  0  0
 14 16  1  0  0  0  0
 16 26  1  0  0  0  0
 16 27  1  0  0  0  0
 17 18  1  0  0  0  0
 17 19  1  0  0  0  0
 19 20  1  0  0  0  0
M  END
$$$$
ZINC00833811
  -OEChem-08230709403D

 27 29  0     0  0  0  0  0  0999 V2000
    3.2025   -2.9771   -2.1246 C   0  0  0  0  0  0  0  0  0  0  0  0
    3.3609   -3.3842   -3.4078 C   0  0  0  0  0  0  0  0  0  0  0  0
    5.0611   -2.9436   -3.7277 S   0  0  0  0  0  0  0  0  0  0  0  0
    5.4433   -2.2398   -2.1321 C   0  0  0  0  0  0  0  0  0  0  0  0
    4.2681   -2.3854   -1.4726 C   0  0  0  0  0  0  0  0  0  0  0  0
    4.1271   -1.9148   -0.0480 C   0  0  0  0  0  0  0  0  0  0  0  0
    3.6616   -0.4815   -0.0361 C   0  0  0  0  0  0  0  0  0  0  0  0
    2.3196   -0.0443   -0.0204 C   0  0  0  0  0  0  0  0  0  0  0  0
    2.3544    1.3553   -0.0132 C   0  0  0  0  0  0  0  0  0  0  0  0
    1.1378    2.0614    0.0023 C   0  0  0  0  0  0  0  0  0  0  0  0
    1.1255    3.2812    0.0086 O   0  0  0  0  0  0  0  0  0  0  0  0
   -0.0164    1.3598    0.0095 N   0  0  0  0  0  0  0  0  0  0  0  0
   -0.8913    1.8440    0.0204 H   0  0  0  0  0  0  0  0  0  0  0  0
    0.0021   -0.0041    0.0020 C   0  0  0  0  0  0  0  0  0  0  0  0
    1.1258   -0.6811   -0.0124 N   0  0  0  0  0  0  0  0  0  0  0  0
   -1.1894   -0.6879    0.0093 N   0  0  0  0  0  0  0  0  0  0  0  0
    3.6814    1.7319   -0.0244 N   0  0  0  0  0  0  0  0  0  0  0  0
    4.0100    2.6446   -0.0230 H   0  0  0  0  0  0  0  0  0  0  0  0
    4.4540    0.6107   -0.0381 C   0  0  0  0  0  0  0  0  0  0  0  0
    6.5487    0.5853   -0.0600 I   0  0  0  0  0  0  0  0  0  0  0  0
    2.2566   -3.1094   -1.6204 H   0  0  0  0  0  0  0  0  0  0  0  0
    2.6457   -3.8571   -4.0645 H   0  0  0  0  0  0  0  0  0  0  0  0
    6.3705   -1.8099   -1.7828 H   0  0  0  0  0  0  0  0  0  0  0  0
    5.0909   -1.9879    0.4559 H   0  0  0  0  0  0  0  0  0  0  0  0
    3.3981   -2.5379    0.4701 H   0  0  0  0  0  0  0  0  0  0  0  0
   -2.0281   -0.2008    0.0196 H   0  0  0  0  0  0  0  0  0  0  0  0
   -1.1919   -1.6579    0.0041 H   0  0  0  0  0  0  0  0  0  0  0  0
  1  5  1  0  0  0  0
  1  2  2  0  0  0  0
  1 21  1  0  0  0  0
  2  3  1  0  0  0  0
  2 22  1  0  0  0  0
  3  4  1  0  0  0  0
  4  5  2  0  0  0  0
  4 23  1  0  0  0  0
  5  6  1  0  0  0  0
  6  7  1  0  0  0  0
  6 24  1  0  0  0  0
  6 25  1  0  0  0  0
  7 19  2  0  0  0  0
  7  8  1  0  0  0  0
  8 15  1  0  0  0  0
  8  9  2  0  0  0  0
  9 10  1  0  0  0  0
  9 17  1  0  0  0  0
 10 11  2  0  0  0  0
 10 12  1  0  0  0  0
 12 13  1  0  0  0  0
 12 14  1  0  0  0  0
 14 15  2  0  0  0  0
 14 16  1  0  0  0  0
 16 26  1  0  0  0  0
 16 27  1  0  0  0  0
 17 18  1  0  0  0  0
 17 19  1  0  0  0  0
 19 20  1  0  0  0  0
M  END
$$$$
ZINC01489212
  -OEChem-08230709403D

 49 51  0     1  0  0  0  0  0999 V2000
    0.9009   -0.8305    4.9876 C   0  0  0  0  0  0  0  0  0  0  0  0
    1.0322   -2.3504    4.8712 C   0  0  0  0  0  0  0  0  0  0  0  0
   -0.3606   -2.9835    4.8633 C   0  0  0  0  0  0  0  0  0  0  0  0
    1.7484   -2.6962    3.5911 C   0  0  0  0  0  0  0  0  0  0  0  0
    2.7895   -3.3083    3.6278 O   0  0  0  0  0  0  0  0  0  0  0  0
    1.2298   -2.3241    2.4103 O   0  0  0  0  0  0  0  0  0  0  0  0
    1.9737   -2.6912    1.2186 C   0  0  0  0  0  0  0  0  0  0  0  0
    1.2329   -2.1856   -0.0210 C   0  0  1  0  0  0  0  0  0  0  0  0
    0.2108   -2.5640   -0.0129 H   0  0  0  0  0  0  0  0  0  0  0  0
    1.2108   -0.6788   -0.0131 C   0  0  0  0  0  0  0  0  0  0  0  0
    2.3973    0.0301   -0.0207 C   0  0  0  0  0  0  0  0  0  0  0  0
    2.3774    1.4122   -0.0126 C   0  0  0  0  0  0  0  0  0  0  0  0
    1.1707    2.0872    0.0021 C   0  0  0  0  0  0  0  0  0  0  0  0
   -0.0167    1.3806    0.0096 C   0  0  0  0  0  0  0  0  0  0  0  0
    0.0021   -0.0041    0.0020 C   0  0  0  0  0  0  0  0  0  0  0  0
   -1.1583   -0.6959    0.0089 F   0  0  0  0  0  0  0  0  0  0  0  0
    1.9386   -2.6712   -1.2608 C   0  0  0  0  0  0  0  0  0  0  0  0
    3.2142   -2.4016   -1.6047 C   0  0  0  0  0  0  0  0  0  0  0  0
    3.5035   -3.0090   -2.7882 N   0  0  0  0  0  0  0  0  0  0  0  0
    4.3556   -2.9698   -3.2500 H   0  0  0  0  0  0  0  0  0  0  0  0
    2.3855   -3.6898   -3.2217 C   0  0  0  0  0  0  0  0  0  0  0  0
    1.3829   -3.4941   -2.2648 C   0  0  0  0  0  0  0  0  0  0  0  0
    0.1699   -4.0518   -2.4494 N   0  0  0  0  0  0  0  0  0  0  0  0
   -0.0812   -4.7857   -3.5074 C   0  0  0  0  0  0  0  0  0  0  0  0
    0.8621   -5.0130   -4.4663 N   0  0  0  0  0  0  0  0  0  0  0  0
    0.6373   -5.5778   -5.2603 H   0  0  0  0  0  0  0  0  0  0  0  0
    2.0980   -4.4800   -4.3502 C   0  0  0  0  0  0  0  0  0  0  0  0
    2.9457   -4.6788   -5.2046 O   0  0  0  0  0  0  0  0  0  0  0  0
   -1.3291   -5.3413   -3.6535 N   0  0  0  0  0  0  0  0  0  0  0  0
    1.7766   -2.8508    5.9836 O   0  0  0  0  0  0  0  0  0  0  0  0
    1.1808   -2.5750    7.2529 C   0  0  0  0  0  0  0  0  0  0  0  0
    0.3331   -0.4488    4.1390 H   0  0  0  0  0  0  0  0  0  0  0  0
    0.3828   -0.5804    5.9134 H   0  0  0  0  0  0  0  0  0  0  0  0
    1.8932   -0.3795    4.9932 H   0  0  0  0  0  0  0  0  0  0  0  0
   -0.2671   -4.0663    4.7804 H   0  0  0  0  0  0  0  0  0  0  0  0
   -0.8787   -2.7334    5.7891 H   0  0  0  0  0  0  0  0  0  0  0  0
   -0.9284   -2.6019    4.0147 H   0  0  0  0  0  0  0  0  0  0  0  0
    2.0675   -3.7760    1.1686 H   0  0  0  0  0  0  0  0  0  0  0  0
    2.9662   -2.2422    1.2571 H   0  0  0  0  0  0  0  0  0  0  0  0
    3.3404   -0.4960   -0.0325 H   0  0  0  0  0  0  0  0  0  0  0  0
    3.3050    1.9653   -0.0181 H   0  0  0  0  0  0  0  0  0  0  0  0
    1.1563    3.1670    0.0077 H   0  0  0  0  0  0  0  0  0  0  0  0
   -0.9591    1.9080    0.0170 H   0  0  0  0  0  0  0  0  0  0  0  0
    3.9003   -1.7971   -1.0301 H   0  0  0  0  0  0  0  0  0  0  0  0
   -1.5293   -5.8865   -4.4304 H   0  0  0  0  0  0  0  0  0  0  0  0
   -2.0100   -5.1884   -2.9798 H   0  0  0  0  0  0  0  0  0  0  0  0
    0.1916   -3.0307    7.2967 H   0  0  0  0  0  0  0  0  0  0  0  0
    1.8061   -2.9871    8.0450 H   0  0  0  0  0  0  0  0  0  0  0  0
    1.0904   -1.4968    7.3853 H   0  0  0  0  0  0  0  0  0  0  0  0
  1  2  1  0  0  0  0
  1 32  1  0  0  0  0
  1 33  1  0  0  0  0
  1 34  1  0  0  0  0
  2  3  1  0  0  0  0
  2  4  1  0  0  0  0
  2 30  1  0  0  0  0
  3 35  1  0  0  0  0
  3 36  1  0  0  0  0
  3 37  1  0  0  0  0
  4  5  2  0  0  0  0
  4  6  1  0  0  0  0
  6  7  1  0  0  0  0
  7  8  1  0  0  0  0
  7 38  1  0  0  0  0
  7 39  1  0  0  0  0
  8  9  1  0  0  0  0
  8 10  1  0  0  0  0
  8 17  1  0  0  0  0
 10 15  2  0  0  0  0
 10 11  1  0  0  0  0
 11 12  2  0  0  0  0
 11 40  1  0  0  0  0
 12 13  1  0  0  0  0
 12 41  1  0  0  0  0
 13 14  2  0  0  0  0
 13 42  1  0  0  0  0
 14 15  1  0  0  0  0
 14 43  1  0  0  0  0
 15 16  1  0  0  0  0
 17 22  1  0  0  0  0
 17 18  2  0  0  0  0
 18 19  1  0  0  0  0
 18 44  1  0  0  0  0
 19 20  1  0  0  0  0
 19 21  1  0  0  0  0
 21 27  1  0  0  0  0
 21 22  2  0  0  0  0
 22 23  1  0  0  0  0
 23 24  2  0  0  0  0
 24 25  1  0  0  0  0
 24 29  1  0  0  0  0
 25 26  1  0  0  0  0
 25 27  1  0  0  0  0
 27 28  2  0  0  0  0
 29 45  1  0  0  0  0
 29 46  1  0  0  0  0
 30 31  1  0  0  0  0
 31 47  1  0  0  0  0
 31 48  1  0  0  0  0
 31 49  1  0  0  0  0
M  END
$$$$
ZINC01489212
  -OEChem-08230709403D

 49 51  0     1  0  0  0  0  0999 V2000
    0.9009   -0.8305    4.9876 C   0  0  0  0  0  0  0  0  0  0  0  0
    1.0322   -2.3504    4.8712 C   0  0  0  0  0  0  0  0  0  0  0  0
   -0.3606   -2.9835    4.8633 C   0  0  0  0  0  0  0  0  0  0  0  0
    1.7484   -2.6962    3.5911 C   0  0  0  0  0  0  0  0  0  0  0  0
    2.7895   -3.3083    3.6278 O   0  0  0  0  0  0  0  0  0  0  0  0
    1.2298   -2.3241    2.4103 O   0  0  0  0  0  0  0  0  0  0  0  0
    1.9737   -2.6912    1.2186 C   0  0  0  0  0  0  0  0  0  0  0  0
    1.2329   -2.1856   -0.0210 C   0  0  1  0  0  0  0  0  0  0  0  0
    0.2108   -2.5640   -0.0129 H   0  0  0  0  0  0  0  0  0  0  0  0
    1.2108   -0.6788   -0.0131 C   0  0  0  0  0  0  0  0  0  0  0  0
    2.3973    0.0301   -0.0207 C   0  0  0  0  0  0  0  0  0  0  0  0
    2.3774    1.4122   -0.0126 C   0  0  0  0  0  0  0  0  0  0  0  0
    1.1707    2.0872    0.0021 C   0  0  0  0  0  0  0  0  0  0  0  0
   -0.0167    1.3806    0.0096 C   0  0  0  0  0  0  0  0  0  0  0  0
    0.0021   -0.0041    0.0020 C   0  0  0  0  0  0  0  0  0  0  0  0
   -1.1583   -0.6959    0.0089 F   0  0  0  0  0  0  0  0  0  0  0  0
    1.9386   -2.6712   -1.2608 C   0  0  0  0  0  0  0  0  0  0  0  0
    3.2142   -2.4016   -1.6047 C   0  0  0  0  0  0  0  0  0  0  0  0
    3.5035   -3.0090   -2.7882 N   0  0  0  0  0  0  0  0  0  0  0  0
    4.3556   -2.9698   -3.2500 H   0  0  0  0  0  0  0  0  0  0  0  0
    2.3855   -3.6898   -3.2217 C   0  0  0  0  0  0  0  0  0  0  0  0
    1.3829   -3.4941   -2.2648 C   0  0  0  0  0  0  0  0  0  0  0  0
    0.1699   -4.0518   -2.4494 N   0  0  0  0  0  0  0  0  0  0  0  0
   -0.0812   -4.7857   -3.5074 C   0  0  0  0  0  0  0  0  0  0  0  0
    0.8621   -5.0130   -4.4663 N   0  0  0  0  0  0  0  0  0  0  0  0
    0.6373   -5.5778   -5.2603 H   0  0  0  0  0  0  0  0  0  0  0  0
    2.0980   -4.4800   -4.3502 C   0  0  0  0  0  0  0  0  0  0  0  0
    2.9457   -4.6788   -5.2046 O   0  0  0  0  0  0  0  0  0  0  0  0
   -1.3291   -5.3413   -3.6535 N   0  0  0  0  0  0  0  0  0  0  0  0
    1.7766   -2.8508    5.9836 O   0  0  0  0  0  0  0  0  0  0  0  0
    1.1808   -2.5750    7.2529 C   0  0  0  0  0  0  0  0  0  0  0  0
    0.3331   -0.4488    4.1390 H   0  0  0  0  0  0  0  0  0  0  0  0
    0.3828   -0.5804    5.9134 H   0  0  0  0  0  0  0  0  0  0  0  0
    1.8932   -0.3795    4.9932 H   0  0  0  0  0  0  0  0  0  0  0  0
   -0.2671   -4.0663    4.7804 H   0  0  0  0  0  0  0  0  0  0  0  0
   -0.8787   -2.7334    5.7891 H   0  0  0  0  0  0  0  0  0  0  0  0
   -0.9284   -2.6019    4.0147 H   0  0  0  0  0  0  0  0  0  0  0  0
    2.0675   -3.7760    1.1686 H   0  0  0  0  0  0  0  0  0  0  0  0
    2.9662   -2.2422    1.2571 H   0  0  0  0  0  0  0  0  0  0  0  0
    3.3404   -0.4960   -0.0325 H   0  0  0  0  0  0  0  0  0  0  0  0
    3.3050    1.9653   -0.0181 H   0  0  0  0  0  0  0  0  0  0  0  0
    1.1563    3.1670    0.0077 H   0  0  0  0  0  0  0  0  0  0  0  0
   -0.9591    1.9080    0.0170 H   0  0  0  0  0  0  0  0  0  0  0  0
    3.9003   -1.7971   -1.0301 H   0  0  0  0  0  0  0  0  0  0  0  0
   -1.5293   -5.8865   -4.4304 H   0  0  0  0  0  0  0  0  0  0  0  0
   -2.0100   -5.1884   -2.9798 H   0  0  0  0  0  0  0  0  0  0  0  0
    0.1916   -3.0307    7.2967 H   0  0  0  0  0  0  0  0  0  0  0  0
    1.8061   -2.9871    8.0450 H   0  0  0  0  0  0  0  0  0  0  0  0
    1.0904   -1.4968    7.3853 H   0  0  0  0  0  0  0  0  0  0  0  0
  1  2  1  0  0  0  0
  1 32  1  0  0  0  0
  1 33  1  0  0  0  0
  1 34  1  0  0  0  0
  2  3  1  0  0  0  0
  2  4  1  0  0  0  0
  2 30  1  0  0  0  0
  3 35  1  0  0  0  0
  3 36  1  0  0  0  0
  3 37  1  0  0  0  0
  4  5  2  0  0  0  0
  4  6  1  0  0  0  0
  6  7  1  0  0  0  0
  7  8  1  0  0  0  0
  7 38  1  0  0  0  0
  7 39  1  0  0  0  0
  8  9  1  0  0  0  0
  8 10  1  0  0  0  0
  8 17  1  0  0  0  0
 10 15  2  0  0  0  0
 10 11  1  0  0  0  0
 11 12  2  0  0  0  0
 11 40  1  0  0  0  0
 12 13  1  0  0  0  0
 12 41  1  0  0  0  0
 13 14  2  0  0  0  0
 13 42  1  0  0  0  0
 14 15  1  0  0  0  0
 14 43  1  0  0  0  0
 15 16  1  0  0  0  0
 17 22  1  0  0  0  0
 17 18  2  0  0  0  0
 18 19  1  0  0  0  0
 18 44  1  0  0  0  0
 19 20  1  0  0  0  0
 19 21  1  0  0  0  0
 21 27  1  0  0  0  0
 21 22  2  0  0  0  0
 22 23  1  0  0  0  0
 23 24  2  0  0  0  0
 24 25  1  0  0  0  0
 24 29  1  0  0  0  0
 25 26  1  0  0  0  0
 25 27  1  0  0  0  0
 27 28  2  0  0  0  0
 29 45  1  0  0  0  0
 29 46  1  0  0  0  0
 30 31  1  0  0  0  0
 31 47  1  0  0  0  0
 31 48  1  0  0  0  0
 31 49  1  0  0  0  0
M  END
$$$$
ZINC03788814
  -OEChem-08230709403D

 34 36  0     1  0  0  0  0  0999 V2000
   -3.1044    7.6285   -1.3932 C   0  0  0  0  0  0  0  0  0  0  0  0
   -3.2965    8.4109   -2.5183 C   0  0  0  0  0  0  0  0  0  0  0  0
   -2.2711    8.5715   -3.4325 C   0  0  0  0  0  0  0  0  0  0  0  0
   -1.0533    7.9502   -3.2218 C   0  0  0  0  0  0  0  0  0  0  0  0
   -0.8600    7.1719   -2.0933 C   0  0  0  0  0  0  0  0  0  0  0  0
   -1.8882    7.0073   -1.1824 C   0  0  0  0  0  0  0  0  0  0  0  0
   -1.6798    6.1554    0.0432 C   0  0  1  0  0  0  0  0  0  0  0  0
   -0.6672    5.7519    0.0373 H   0  0  0  0  0  0  0  0  0  0  0  0
   -1.8817    7.0081    1.2974 C   0  0  0  0  0  0  0  0  0  0  0  0
   -1.5615    6.2085    2.4911 C   0  0  0  0  0  0  0  0  0  0  0  0
   -1.3144    5.5915    3.4123 N   0  0  0  0  0  0  0  0  0  0  0  0
   -2.6724    5.0215    0.0415 C   0  0  0  0  0  0  0  0  0  0  0  0
   -4.0153    5.1426    0.0478 C   0  0  0  0  0  0  0  0  0  0  0  0
   -4.5829    3.9052    0.0438 N   0  0  0  0  0  0  0  0  0  0  0  0
   -5.5351    3.7203    0.0468 H   0  0  0  0  0  0  0  0  0  0  0  0
   -3.5807    2.9582    0.0347 C   0  0  0  0  0  0  0  0  0  0  0  0
   -2.3607    3.6443    0.0331 C   0  0  0  0  0  0  0  0  0  0  0  0
   -1.2066    2.9482    0.0292 N   0  0  0  0  0  0  0  0  0  0  0  0
   -1.2100    1.6365    0.0167 C   0  0  0  0  0  0  0  0  0  0  0  0
   -2.3706    0.9195    0.0183 N   0  0  0  0  0  0  0  0  0  0  0  0
   -2.3371   -0.0799    0.0131 H   0  0  0  0  0  0  0  0  0  0  0  0
   -3.5649    1.5510    0.0269 C   0  0  0  0  0  0  0  0  0  0  0  0
   -4.6062    0.9156    0.0276 O   0  0  0  0  0  0  0  0  0  0  0  0
   -0.0111    0.9658    0.0074 N   0  0  0  0  0  0  0  0  0  0  0  0
    0.6700    6.3967   -1.8249 Cl  0  0  0  0  0  0  0  0  0  0  0  0
    0.2344    8.1519   -4.3686 Cl  0  0  0  0  0  0  0  0  0  0  0  0
   -4.8249    9.1905   -2.7826 Cl  0  0  0  0  0  0  0  0  0  0  0  0
   -3.9055    7.5031   -0.6797 H   0  0  0  0  0  0  0  0  0  0  0  0
   -2.4211    9.1822   -4.3106 H   0  0  0  0  0  0  0  0  0  0  0  0
   -1.2251    7.8772    1.2554 H   0  0  0  0  0  0  0  0  0  0  0  0
   -2.9191    7.3386    1.3489 H   0  0  0  0  0  0  0  0  0  0  0  0
   -4.5569    6.0769    0.0552 H   0  0  0  0  0  0  0  0  0  0  0  0
    0.0021   -0.0041    0.0020 H   0  0  0  0  0  0  0  0  0  0  0  0
    0.8223    1.4622    0.0021 H   0  0  0  0  0  0  0  0  0  0  0  0
  1  6  2  0  0  0  0
  1  2  1  0  0  0  0
  1 28  1  0  0  0  0
  2  3  2  0  0  0  0
  2 27  1  0  0  0  0
  3  4  1  0  0  0  0
  3 29  1  0  0  0  0
  4  5  2  0  0  0  0
  4 26  1  0  0  0  0
  5  6  1  0  0  0  0
  5 25  1  0  0  0  0
  6  7  1  0  0  0  0
  7  8  1  0  0  0  0
  7  9  1  0  0  0  0
  7 12  1  0  0  0  0
  9 10  1  0  0  0  0
  9 30  1  0  0  0  0
  9 31  1  0  0  0  0
 10 11  3  0  0  0  0
 12 17  1  0  0  0  0
 12 13  2  0  0  0  0
 13 14  1  0  0  0  0
 13 32  1  0  0  0  0
 14 15  1  0  0  0  0
 14 16  1  0  0  0  0
 16 22  1  0  0  0  0
 16 17  2  0  0  0  0
 17 18  1  0  0  0  0
 18 19  2  0  0  0  0
 19 20  1  0  0  0  0
 19 24  1  0  0  0  0
 20 21  1  0  0  0  0
 20 22  1  0  0  0  0
 22 23  2  0  0  0  0
 24 33  1  0  0  0  0
 24 34  1  0  0  0  0
M  END
$$$$
ZINC03788814
  -OEChem-08230709403D

 34 36  0     1  0  0  0  0  0999 V2000
   -3.1044    7.6285   -1.3932 C   0  0  0  0  0  0  0  0  0  0  0  0
   -3.2965    8.4109   -2.5183 C   0  0  0  0  0  0  0  0  0  0  0  0
   -2.2711    8.5715   -3.4325 C   0  0  0  0  0  0  0  0  0  0  0  0
   -1.0533    7.9502   -3.2218 C   0  0  0  0  0  0  0  0  0  0  0  0
   -0.8600    7.1719   -2.0933 C   0  0  0  0  0  0  0  0  0  0  0  0
   -1.8882    7.0073   -1.1824 C   0  0  0  0  0  0  0  0  0  0  0  0
   -1.6798    6.1554    0.0432 C   0  0  1  0  0  0  0  0  0  0  0  0
   -0.6672    5.7519    0.0373 H   0  0  0  0  0  0  0  0  0  0  0  0
   -1.8817    7.0081    1.2974 C   0  0  0  0  0  0  0  0  0  0  0  0
   -1.5615    6.2085    2.4911 C   0  0  0  0  0  0  0  0  0  0  0  0
   -1.3144    5.5915    3.4123 N   0  0  0  0  0  0  0  0  0  0  0  0
   -2.6724    5.0215    0.0415 C   0  0  0  0  0  0  0  0  0  0  0  0
   -4.0153    5.1426    0.0478 C   0  0  0  0  0  0  0  0  0  0  0  0
   -4.5829    3.9052    0.0438 N   0  0  0  0  0  0  0  0  0  0  0  0
   -5.5351    3.7203    0.0468 H   0  0  0  0  0  0  0  0  0  0  0  0
   -3.5807    2.9582    0.0347 C   0  0  0  0  0  0  0  0  0  0  0  0
   -2.3607    3.6443    0.0331 C   0  0  0  0  0  0  0  0  0  0  0  0
   -1.2066    2.9482    0.0292 N   0  0  0  0  0  0  0  0  0  0  0  0
   -1.2100    1.6365    0.0167 C   0  0  0  0  0  0  0  0  0  0  0  0
   -2.3706    0.9195    0.0183 N   0  0  0  0  0  0  0  0  0  0  0  0
   -2.3371   -0.0799    0.0131 H   0  0  0  0  0  0  0  0  0  0  0  0
   -3.5649    1.5510    0.0269 C   0  0  0  0  0  0  0  0  0  0  0  0
   -4.6062    0.9156    0.0276 O   0  0  0  0  0  0  0  0  0  0  0  0
   -0.0111    0.9658    0.0074 N   0  0  0  0  0  0  0  0  0  0  0  0
    0.6700    6.3967   -1.8249 Cl  0  0  0  0  0  0  0  0  0  0  0  0
    0.2344    8.1519   -4.3686 Cl  0  0  0  0  0  0  0  0  0  0  0  0
   -4.8249    9.1905   -2.7826 Cl  0  0  0  0  0  0  0  0  0  0  0  0
   -3.9055    7.5031   -0.6797 H   0  0  0  0  0  0  0  0  0  0  0  0
   -2.4211    9.1822   -4.3106 H   0  0  0  0  0  0  0  0  0  0  0  0
   -1.2251    7.8772    1.2554 H   0  0  0  0  0  0  0  0  0  0  0  0
   -2.9191    7.3386    1.3489 H   0  0  0  0  0  0  0  0  0  0  0  0
   -4.5569    6.0769    0.0552 H   0  0  0  0  0  0  0  0  0  0  0  0
    0.0021   -0.0041    0.0020 H   0  0  0  0  0  0  0  0  0  0  0  0
    0.8223    1.4622    0.0021 H   0  0  0  0  0  0  0  0  0  0  0  0
  1  6  2  0  0  0  0
  1  2  1  0  0  0  0
  1 28  1  0  0  0  0
  2  3  2  0  0  0  0
  2 27  1  0  0  0  0
  3  4  1  0  0  0  0
  3 29  1  0  0  0  0
  4  5  2  0  0  0  0
  4 26  1  0  0  0  0
  5  6  1  0  0  0  0
  5 25  1  0  0  0  0
  6  7  1  0  0  0  0
  7  8  1  0  0  0  0
  7  9  1  0  0  0  0
  7 12  1  0  0  0  0
  9 10  1  0  0  0  0
  9 30  1  0  0  0  0
  9 31  1  0  0  0  0
 10 11  3  0  0  0  0
 12 17  1  0  0  0  0
 12 13  2  0  0  0  0
 13 14  1  0  0  0  0
 13 32  1  0  0  0  0
 14 15  1  0  0  0  0
 14 16  1  0  0  0  0
 16 22  1  0  0  0  0
 16 17  2  0  0  0  0
 17 18  1  0  0  0  0
 18 19  2  0  0  0  0
 19 20  1  0  0  0  0
 19 24  1  0  0  0  0
 20 21  1  0  0  0  0
 20 22  1  0  0  0  0
 22 23  2  0  0  0  0
 24 33  1  0  0  0  0
 24 34  1  0  0  0  0
M  END
$$$$
ZINC03788820
  -OEChem-08230709403D

 35 37  0     1  0  0  0  0  0999 V2000
   -2.2730    8.5714   -3.4293 C   0  0  0  0  0  0  0  0  0  0  0  0
   -1.0560    7.9505   -3.2190 C   0  0  0  0  0  0  0  0  0  0  0  0
   -0.8641    7.1684   -2.0955 C   0  0  0  0  0  0  0  0  0  0  0  0
   -1.8890    7.0080   -1.1817 C   0  0  0  0  0  0  0  0  0  0  0  0
   -3.1075    7.6250   -1.3945 C   0  0  0  0  0  0  0  0  0  0  0  0
   -3.2980    8.4106   -2.5158 C   0  0  0  0  0  0  0  0  0  0  0  0
   -1.6798    6.1554    0.0432 C   0  0  1  0  0  0  0  0  0  0  0  0
   -0.6672    5.7519    0.0364 H   0  0  0  0  0  0  0  0  0  0  0  0
   -1.8808    7.0074    1.2980 C   0  0  0  0  0  0  0  0  0  0  0  0
   -1.5523    6.1881    2.5194 C   0  0  0  0  0  0  0  0  0  0  0  0
   -1.1941    5.0405    2.3987 O   0  0  0  0  0  0  0  0  0  0  0  0
   -2.6724    5.0215    0.0415 C   0  0  0  0  0  0  0  0  0  0  0  0
   -4.0153    5.1426    0.0478 C   0  0  0  0  0  0  0  0  0  0  0  0
   -4.5829    3.9052    0.0438 N   0  0  0  0  0  0  0  0  0  0  0  0
   -5.5351    3.7203    0.0468 H   0  0  0  0  0  0  0  0  0  0  0  0
   -3.5807    2.9582    0.0347 C   0  0  0  0  0  0  0  0  0  0  0  0
   -2.3607    3.6443    0.0331 C   0  0  0  0  0  0  0  0  0  0  0  0
   -1.2066    2.9482    0.0292 N   0  0  0  0  0  0  0  0  0  0  0  0
   -1.2100    1.6365    0.0167 C   0  0  0  0  0  0  0  0  0  0  0  0
   -2.3706    0.9195    0.0183 N   0  0  0  0  0  0  0  0  0  0  0  0
   -2.3371   -0.0799    0.0131 H   0  0  0  0  0  0  0  0  0  0  0  0
   -3.5649    1.5510    0.0269 C   0  0  0  0  0  0  0  0  0  0  0  0
   -4.6062    0.9156    0.0276 O   0  0  0  0  0  0  0  0  0  0  0  0
   -0.0111    0.9658    0.0074 N   0  0  0  0  0  0  0  0  0  0  0  0
   -2.4230    9.1825   -4.3072 H   0  0  0  0  0  0  0  0  0  0  0  0
   -0.2552    8.0761   -3.9327 H   0  0  0  0  0  0  0  0  0  0  0  0
    0.0866    6.6830   -1.9313 H   0  0  0  0  0  0  0  0  0  0  0  0
   -3.9096    7.4961   -0.6828 H   0  0  0  0  0  0  0  0  0  0  0  0
   -4.2487    8.8960   -2.6800 H   0  0  0  0  0  0  0  0  0  0  0  0
   -1.2244    7.8765    1.2561 H   0  0  0  0  0  0  0  0  0  0  0  0
   -2.9182    7.3378    1.3504 H   0  0  0  0  0  0  0  0  0  0  0  0
   -4.5569    6.0769    0.0552 H   0  0  0  0  0  0  0  0  0  0  0  0
    0.0021   -0.0041    0.0020 H   0  0  0  0  0  0  0  0  0  0  0  0
    0.8223    1.4622    0.0021 H   0  0  0  0  0  0  0  0  0  0  0  0
   -1.6576    6.7333    3.7415 O   0  5  0  0  0  0  0  0  0  0  0  0
  1  6  2  0  0  0  0
  1  2  1  0  0  0  0
  1 25  1  0  0  0  0
  2  3  2  0  0  0  0
  2 26  1  0  0  0  0
  3  4  1  0  0  0  0
  3 27  1  0  0  0  0
  4  5  2  0  0  0  0
  4  7  1  0  0  0  0
  5  6  1  0  0  0  0
  5 28  1  0  0  0  0
  6 29  1  0  0  0  0
  7  8  1  0  0  0  0
  7  9  1  0  0  0  0
  7 12  1  0  0  0  0
  9 10  1  0  0  0  0
  9 30  1  0  0  0  0
  9 31  1  0  0  0  0
 10 11  2  0  0  0  0
 10 35  1  0  0  0  0
 12 17  1  0  0  0  0
 12 13  2  0  0  0  0
 13 14  1  0  0  0  0
 13 32  1  0  0  0  0
 14 15  1  0  0  0  0
 14 16  1  0  0  0  0
 16 22  1  0  0  0  0
 16 17  2  0  0  0  0
 17 18  1  0  0  0  0
 18 19  2  0  0  0  0
 19 20  1  0  0  0  0
 19 24  1  0  0  0  0
 20 21  1  0  0  0  0
 20 22  1  0  0  0  0
 22 23  2  0  0  0  0
 24 33  1  0  0  0  0
 24 34  1  0  0  0  0
M  CHG  1  35  -1
M  END
$$$$
ZINC03788820
  -OEChem-08230709403D

 35 37  0     1  0  0  0  0  0999 V2000
   -2.2730    8.5714   -3.4293 C   0  0  0  0  0  0  0  0  0  0  0  0
   -1.0560    7.9505   -3.2190 C   0  0  0  0  0  0  0  0  0  0  0  0
   -0.8641    7.1684   -2.0955 C   0  0  0  0  0  0  0  0  0  0  0  0
   -1.8890    7.0080   -1.1817 C   0  0  0  0  0  0  0  0  0  0  0  0
   -3.1075    7.6250   -1.3945 C   0  0  0  0  0  0  0  0  0  0  0  0
   -3.2980    8.4106   -2.5158 C   0  0  0  0  0  0  0  0  0  0  0  0
   -1.6798    6.1554    0.0432 C   0  0  1  0  0  0  0  0  0  0  0  0
   -0.6672    5.7519    0.0364 H   0  0  0  0  0  0  0  0  0  0  0  0
   -1.8808    7.0074    1.2980 C   0  0  0  0  0  0  0  0  0  0  0  0
   -1.5523    6.1881    2.5194 C   0  0  0  0  0  0  0  0  0  0  0  0
   -1.1941    5.0405    2.3987 O   0  0  0  0  0  0  0  0  0  0  0  0
   -2.6724    5.0215    0.0415 C   0  0  0  0  0  0  0  0  0  0  0  0
   -4.0153    5.1426    0.0478 C   0  0  0  0  0  0  0  0  0  0  0  0
   -4.5829    3.9052    0.0438 N   0  0  0  0  0  0  0  0  0  0  0  0
   -5.5351    3.7203    0.0468 H   0  0  0  0  0  0  0  0  0  0  0  0
   -3.5807    2.9582    0.0347 C   0  0  0  0  0  0  0  0  0  0  0  0
   -2.3607    3.6443    0.0331 C   0  0  0  0  0  0  0  0  0  0  0  0
   -1.2066    2.9482    0.0292 N   0  0  0  0  0  0  0  0  0  0  0  0
   -1.2100    1.6365    0.0167 C   0  0  0  0  0  0  0  0  0  0  0  0
   -2.3706    0.9195    0.0183 N   0  0  0  0  0  0  0  0  0  0  0  0
   -2.3371   -0.0799    0.0131 H   0  0  0  0  0  0  0  0  0  0  0  0
   -3.5649    1.5510    0.0269 C   0  0  0  0  0  0  0  0  0  0  0  0
   -4.6062    0.9156    0.0276 O   0  0  0  0  0  0  0  0  0  0  0  0
   -0.0111    0.9658    0.0074 N   0  0  0  0  0  0  0  0  0  0  0  0
   -2.4230    9.1825   -4.3072 H   0  0  0  0  0  0  0  0  0  0  0  0
   -0.2552    8.0761   -3.9327 H   0  0  0  0  0  0  0  0  0  0  0  0
    0.0866    6.6830   -1.9313 H   0  0  0  0  0  0  0  0  0  0  0  0
   -3.9096    7.4961   -0.6828 H   0  0  0  0  0  0  0  0  0  0  0  0
   -4.2487    8.8960   -2.6800 H   0  0  0  0  0  0  0  0  0  0  0  0
   -1.2244    7.8765    1.2561 H   0  0  0  0  0  0  0  0  0  0  0  0
   -2.9182    7.3378    1.3504 H   0  0  0  0  0  0  0  0  0  0  0  0
   -4.5569    6.0769    0.0552 H   0  0  0  0  0  0  0  0  0  0  0  0
    0.0021   -0.0041    0.0020 H   0  0  0  0  0  0  0  0  0  0  0  0
    0.8223    1.4622    0.0021 H   0  0  0  0  0  0  0  0  0  0  0  0
   -1.6576    6.7333    3.7415 O   0  5  0  0  0  0  0  0  0  0  0  0
  1  6  2  0  0  0  0
  1  2  1  0  0  0  0
  1 25  1  0  0  0  0
  2  3  2  0  0  0  0
  2 26  1  0  0  0  0
  3  4  1  0  0  0  0
  3 27  1  0  0  0  0
  4  5  2  0  0  0  0
  4  7  1  0  0  0  0
  5  6  1  0  0  0  0
  5 28  1  0  0  0  0
  6 29  1  0  0  0  0
  7  8  1  0  0  0  0
  7  9  1  0  0  0  0
  7 12  1  0  0  0  0
  9 10  1  0  0  0  0
  9 30  1  0  0  0  0
  9 31  1  0  0  0  0
 10 11  2  0  0  0  0
 10 35  1  0  0  0  0
 12 17  1  0  0  0  0
 12 13  2  0  0  0  0
 13 14  1  0  0  0  0
 13 32  1  0  0  0  0
 14 15  1  0  0  0  0
 14 16  1  0  0  0  0
 16 22  1  0  0  0  0
 16 17  2  0  0  0  0
 17 18  1  0  0  0  0
 18 19  2  0  0  0  0
 19 20  1  0  0  0  0
 19 24  1  0  0  0  0
 20 21  1  0  0  0  0
 20 22  1  0  0  0  0
 22 23  2  0  0  0  0
 24 33  1  0  0  0  0
 24 34  1  0  0  0  0
M  CHG  1  35  -1
M  END
$$$$
ZINC03788825
  -OEChem-08230709403D

 41 43  0     1  0  0  0  0  0999 V2000
   -0.0162    1.3441    0.0094 C   0  0  0  0  0  0  0  0  0  0  0  0
    0.0021   -0.0041    0.0020 C   0  0  0  0  0  0  0  0  0  0  0  0
    1.3514   -0.4199   -0.0131 C   0  0  0  0  0  0  0  0  0  0  0  0
    2.1286    0.7442   -0.0143 C   0  0  0  0  0  0  0  0  0  0  0  0
    1.2608    1.8157   -0.0002 N   0  0  0  0  0  0  0  0  0  0  0  0
    1.5178    2.7510    0.0019 H   0  0  0  0  0  0  0  0  0  0  0  0
    3.5305    0.6212   -0.0283 C   0  0  0  0  0  0  0  0  0  0  0  0
    4.2434    1.6110   -0.0298 O   0  0  0  0  0  0  0  0  0  0  0  0
    4.0690   -0.6178   -0.0405 N   0  0  0  0  0  0  0  0  0  0  0  0
    5.0629   -0.7274   -0.0506 H   0  0  0  0  0  0  0  0  0  0  0  0
    3.2656   -1.7203   -0.0391 C   0  0  0  0  0  0  0  0  0  0  0  0
    1.9574   -1.6237   -0.0257 N   0  0  0  0  0  0  0  0  0  0  0  0
    3.8429   -2.9669   -0.0517 N   0  0  0  0  0  0  0  0  0  0  0  0
   -1.2042   -0.9073    0.0087 C   0  0  2  0  0  0  0  0  0  0  0  0
   -0.8792   -1.9477   -0.0004 H   0  0  0  0  0  0  0  0  0  0  0  0
   -2.0569   -0.6285   -1.2307 C   0  0  0  0  0  0  0  0  0  0  0  0
   -1.2834   -1.0056   -2.4678 C   0  0  0  0  0  0  0  0  0  0  0  0
   -0.1649   -1.4515   -2.3685 O   0  0  0  0  0  0  0  0  0  0  0  0
   -2.0324   -0.6428    1.2676 C   0  0  0  0  0  0  0  0  0  0  0  0
   -1.1797   -0.9216    2.5070 C   0  0  0  0  0  0  0  0  0  0  0  0
   -2.0079   -0.6571    3.7660 C   0  0  0  0  0  0  0  0  0  0  0  0
   -3.2326   -1.5741    3.7727 C   0  0  0  0  0  0  0  0  0  0  0  0
   -4.0854   -1.2954    2.5334 C   0  0  0  0  0  0  0  0  0  0  0  0
   -3.2571   -1.5599    1.2744 C   0  0  0  0  0  0  0  0  0  0  0  0
   -0.9065    1.9554    0.0172 H   0  0  0  0  0  0  0  0  0  0  0  0
    3.2844   -3.7600   -0.0506 H   0  0  0  0  0  0  0  0  0  0  0  0
    4.8089   -3.0539   -0.0617 H   0  0  0  0  0  0  0  0  0  0  0  0
   -2.9729   -1.2173   -1.1814 H   0  0  0  0  0  0  0  0  0  0  0  0
   -2.3079    0.4315   -1.2681 H   0  0  0  0  0  0  0  0  0  0  0  0
   -2.3575    0.3975    1.2768 H   0  0  0  0  0  0  0  0  0  0  0  0
   -0.8547   -1.9620    2.4979 H   0  0  0  0  0  0  0  0  0  0  0  0
   -0.3072   -0.2683    2.5022 H   0  0  0  0  0  0  0  0  0  0  0  0
   -2.3330    0.3833    3.7751 H   0  0  0  0  0  0  0  0  0  0  0  0
   -1.4004   -0.8557    4.6489 H   0  0  0  0  0  0  0  0  0  0  0  0
   -3.8227   -1.3857    4.6696 H   0  0  0  0  0  0  0  0  0  0  0  0
   -2.9076   -2.6145    3.7636 H   0  0  0  0  0  0  0  0  0  0  0  0
   -4.4104   -0.2550    2.5425 H   0  0  0  0  0  0  0  0  0  0  0  0
   -4.9579   -1.9487    2.5382 H   0  0  0  0  0  0  0  0  0  0  0  0
   -3.8647   -1.3613    0.3915 H   0  0  0  0  0  0  0  0  0  0  0  0
   -2.9321   -2.6002    1.2653 H   0  0  0  0  0  0  0  0  0  0  0  0
   -1.8371   -0.8460   -3.6802 O   0  5  0  0  0  0  0  0  0  0  0  0
  1  5  1  0  0  0  0
  1  2  2  0  0  0  0
  1 25  1  0  0  0  0
  2  3  1  0  0  0  0
  2 14  1  0  0  0  0
  3 12  1  0  0  0  0
  3  4  2  0  0  0  0
  4  5  1  0  0  0  0
  4  7  1  0  0  0  0
  5  6  1  0  0  0  0
  7  8  2  0  0  0  0
  7  9  1  0  0  0  0
  9 10  1  0  0  0  0
  9 11  1  0  0  0  0
 11 12  2  0  0  0  0
 11 13  1  0  0  0  0
 13 26  1  0  0  0  0
 13 27  1  0  0  0  0
 14 15  1  0  0  0  0
 14 16  1  0  0  0  0
 14 19  1  0  0  0  0
 16 17  1  0  0  0  0
 16 28  1  0  0  0  0
 16 29  1  0  0  0  0
 17 18  2  0  0  0  0
 17 41  1  0  0  0  0
 19 24  1  0  0  0  0
 19 20  1  0  0  0  0
 19 30  1  0  0  0  0
 20 21  1  0  0  0  0
 20 31  1  0  0  0  0
 20 32  1  0  0  0  0
 21 22  1  0  0  0  0
 21 33  1  0  0  0  0
 21 34  1  0  0  0  0
 22 23  1  0  0  0  0
 22 35  1  0  0  0  0
 22 36  1  0  0  0  0
 23 24  1  0  0  0  0
 23 37  1  0  0  0  0
 23 38  1  0  0  0  0
 24 39  1  0  0  0  0
 24 40  1  0  0  0  0
M  CHG  1  41  -1
M  END
$$$$
ZINC03788825
  -OEChem-08230709403D

 41 43  0     1  0  0  0  0  0999 V2000
   -0.0162    1.3441    0.0094 C   0  0  0  0  0  0  0  0  0  0  0  0
    0.0021   -0.0041    0.0020 C   0  0  0  0  0  0  0  0  0  0  0  0
    1.3514   -0.4199   -0.0131 C   0  0  0  0  0  0  0  0  0  0  0  0
    2.1286    0.7442   -0.0143 C   0  0  0  0  0  0  0  0  0  0  0  0
    1.2608    1.8157   -0.0002 N   0  0  0  0  0  0  0  0  0  0  0  0
    1.5178    2.7510    0.0019 H   0  0  0  0  0  0  0  0  0  0  0  0
    3.5305    0.6212   -0.0283 C   0  0  0  0  0  0  0  0  0  0  0  0
    4.2434    1.6110   -0.0298 O   0  0  0  0  0  0  0  0  0  0  0  0
    4.0690   -0.6178   -0.0405 N   0  0  0  0  0  0  0  0  0  0  0  0
    5.0629   -0.7274   -0.0506 H   0  0  0  0  0  0  0  0  0  0  0  0
    3.2656   -1.7203   -0.0391 C   0  0  0  0  0  0  0  0  0  0  0  0
    1.9574   -1.6237   -0.0257 N   0  0  0  0  0  0  0  0  0  0  0  0
    3.8429   -2.9669   -0.0517 N   0  0  0  0  0  0  0  0  0  0  0  0
   -1.2042   -0.9073    0.0087 C   0  0  2  0  0  0  0  0  0  0  0  0
   -0.8792   -1.9477   -0.0004 H   0  0  0  0  0  0  0  0  0  0  0  0
   -2.0569   -0.6285   -1.2307 C   0  0  0  0  0  0  0  0  0  0  0  0
   -1.2834   -1.0056   -2.4678 C   0  0  0  0  0  0  0  0  0  0  0  0
   -0.1649   -1.4515   -2.3685 O   0  0  0  0  0  0  0  0  0  0  0  0
   -2.0324   -0.6428    1.2676 C   0  0  0  0  0  0  0  0  0  0  0  0
   -1.1797   -0.9216    2.5070 C   0  0  0  0  0  0  0  0  0  0  0  0
   -2.0079   -0.6571    3.7660 C   0  0  0  0  0  0  0  0  0  0  0  0
   -3.2326   -1.5741    3.7727 C   0  0  0  0  0  0  0  0  0  0  0  0
   -4.0854   -1.2954    2.5334 C   0  0  0  0  0  0  0  0  0  0  0  0
   -3.2571   -1.5599    1.2744 C   0  0  0  0  0  0  0  0  0  0  0  0
   -0.9065    1.9554    0.0172 H   0  0  0  0  0  0  0  0  0  0  0  0
    3.2844   -3.7600   -0.0506 H   0  0  0  0  0  0  0  0  0  0  0  0
    4.8089   -3.0539   -0.0617 H   0  0  0  0  0  0  0  0  0  0  0  0
   -2.9729   -1.2173   -1.1814 H   0  0  0  0  0  0  0  0  0  0  0  0
   -2.3079    0.4315   -1.2681 H   0  0  0  0  0  0  0  0  0  0  0  0
   -2.3575    0.3975    1.2768 H   0  0  0  0  0  0  0  0  0  0  0  0
   -0.8547   -1.9620    2.4979 H   0  0  0  0  0  0  0  0  0  0  0  0
   -0.3072   -0.2683    2.5022 H   0  0  0  0  0  0  0  0  0  0  0  0
   -2.3330    0.3833    3.7751 H   0  0  0  0  0  0  0  0  0  0  0  0
   -1.4004   -0.8557    4.6489 H   0  0  0  0  0  0  0  0  0  0  0  0
   -3.8227   -1.3857    4.6696 H   0  0  0  0  0  0  0  0  0  0  0  0
   -2.9076   -2.6145    3.7636 H   0  0  0  0  0  0  0  0  0  0  0  0
   -4.4104   -0.2550    2.5425 H   0  0  0  0  0  0  0  0  0  0  0  0
   -4.9579   -1.9487    2.5382 H   0  0  0  0  0  0  0  0  0  0  0  0
   -3.8647   -1.3613    0.3915 H   0  0  0  0  0  0  0  0  0  0  0  0
   -2.9321   -2.6002    1.2653 H   0  0  0  0  0  0  0  0  0  0  0  0
   -1.8371   -0.8460   -3.6802 O   0  5  0  0  0  0  0  0  0  0  0  0
  1  5  1  0  0  0  0
  1  2  2  0  0  0  0
  1 25  1  0  0  0  0
  2  3  1  0  0  0  0
  2 14  1  0  0  0  0
  3 12  1  0  0  0  0
  3  4  2  0  0  0  0
  4  5  1  0  0  0  0
  4  7  1  0  0  0  0
  5  6  1  0  0  0  0
  7  8  2  0  0  0  0
  7  9  1  0  0  0  0
  9 10  1  0  0  0  0
  9 11  1  0  0  0  0
 11 12  2  0  0  0  0
 11 13  1  0  0  0  0
 13 26  1  0  0  0  0
 13 27  1  0  0  0  0
 14 15  1  0  0  0  0
 14 16  1  0  0  0  0
 14 19  1  0  0  0  0
 16 17  1  0  0  0  0
 16 28  1  0  0  0  0
 16 29  1  0  0  0  0
 17 18  2  0  0  0  0
 17 41  1  0  0  0  0
 19 24  1  0  0  0  0
 19 20  1  0  0  0  0
 19 30  1  0  0  0  0
 20 21  1  0  0  0  0
 20 31  1  0  0  0  0
 20 32  1  0  0  0  0
 21 22  1  0  0  0  0
 21 33  1  0  0  0  0
 21 34  1  0  0  0  0
 22 23  1  0  0  0  0
 22 35  1  0  0  0  0
 22 36  1  0  0  0  0
 23 24  1  0  0  0  0
 23 37  1  0  0  0  0
 23 38  1  0  0  0  0
 24 39  1  0  0  0  0
 24 40  1  0  0  0  0
M  CHG  1  41  -1
M  END
$$$$
ZINC03797941
  -OEChem-08230709403D

 35 37  0     1  0  0  0  0  0999 V2000
   -3.2763    8.3860    2.6376 C   0  0  0  0  0  0  0  0  0  0  0  0
   -3.0916    7.6192    1.5020 C   0  0  0  0  0  0  0  0  0  0  0  0
   -1.8786    6.9953    1.2785 C   0  0  0  0  0  0  0  0  0  0  0  0
   -0.8460    7.1462    2.1851 C   0  0  0  0  0  0  0  0  0  0  0  0
   -1.0286    7.9176    3.3188 C   0  0  0  0  0  0  0  0  0  0  0  0
   -2.2448    8.5377    3.5446 C   0  0  0  0  0  0  0  0  0  0  0  0
    0.2679    8.1081    4.4575 Cl  0  0  0  0  0  0  0  0  0  0  0  0
   -1.6798    6.1554    0.0432 C   0  0  2  0  0  0  0  0  0  0  0  0
   -0.6672    5.7519    0.0373 H   0  0  0  0  0  0  0  0  0  0  0  0
   -1.8914    7.0203   -1.2011 C   0  0  0  0  0  0  0  0  0  0  0  0
   -0.8223    8.0806   -1.2635 C   0  0  0  0  0  0  0  0  0  0  0  0
    0.0222    8.1386   -0.4014 O   0  0  0  0  0  0  0  0  0  0  0  0
   -2.6724    5.0215    0.0415 C   0  0  0  0  0  0  0  0  0  0  0  0
   -4.0153    5.1426    0.0478 C   0  0  0  0  0  0  0  0  0  0  0  0
   -4.5829    3.9052    0.0438 N   0  0  0  0  0  0  0  0  0  0  0  0
   -5.5351    3.7203    0.0468 H   0  0  0  0  0  0  0  0  0  0  0  0
   -3.5807    2.9582    0.0347 C   0  0  0  0  0  0  0  0  0  0  0  0
   -2.3607    3.6443    0.0331 C   0  0  0  0  0  0  0  0  0  0  0  0
   -1.2066    2.9482    0.0292 N   0  0  0  0  0  0  0  0  0  0  0  0
   -1.2100    1.6365    0.0167 C   0  0  0  0  0  0  0  0  0  0  0  0
   -2.3706    0.9195    0.0183 N   0  0  0  0  0  0  0  0  0  0  0  0
   -2.3371   -0.0799    0.0131 H   0  0  0  0  0  0  0  0  0  0  0  0
   -3.5649    1.5510    0.0269 C   0  0  0  0  0  0  0  0  0  0  0  0
   -4.6062    0.9156    0.0276 O   0  0  0  0  0  0  0  0  0  0  0  0
   -0.0111    0.9658    0.0074 N   0  0  0  0  0  0  0  0  0  0  0  0
   -4.2257    8.8699    2.8137 H   0  0  0  0  0  0  0  0  0  0  0  0
   -3.8966    7.5046    0.7911 H   0  0  0  0  0  0  0  0  0  0  0  0
    0.1029    6.6618    2.0085 H   0  0  0  0  0  0  0  0  0  0  0  0
   -2.3878    9.1403    4.4293 H   0  0  0  0  0  0  0  0  0  0  0  0
   -1.8353    6.3949   -2.0921 H   0  0  0  0  0  0  0  0  0  0  0  0
   -2.8714    7.4949   -1.1513 H   0  0  0  0  0  0  0  0  0  0  0  0
   -4.5569    6.0769    0.0552 H   0  0  0  0  0  0  0  0  0  0  0  0
    0.0021   -0.0041    0.0020 H   0  0  0  0  0  0  0  0  0  0  0  0
    0.8223    1.4622    0.0021 H   0  0  0  0  0  0  0  0  0  0  0  0
   -0.8083    8.9606   -2.2770 O   0  5  0  0  0  0  0  0  0  0  0  0
  1  6  2  0  0  0  0
  1  2  1  0  0  0  0
  1 26  1  0  0  0  0
  2  3  2  0  0  0  0
  2 27  1  0  0  0  0
  3  4  1  0  0  0  0
  3  8  1  0  0  0  0
  4  5  2  0  0  0  0
  4 28  1  0  0  0  0
  5  6  1  0  0  0  0
  5  7  1  0  0  0  0
  6 29  1  0  0  0  0
  8  9  1  0  0  0  0
  8 10  1  0  0  0  0
  8 13  1  0  0  0  0
 10 11  1  0  0  0  0
 10 30  1  0  0  0  0
 10 31  1  0  0  0  0
 11 12  2  0  0  0  0
 11 35  1  0  0  0  0
 13 18  1  0  0  0  0
 13 14  2  0  0  0  0
 14 15  1  0  0  0  0
 14 32  1  0  0  0  0
 15 16  1  0  0  0  0
 15 17  1  0  0  0  0
 17 23  1  0  0  0  0
 17 18  2  0  0  0  0
 18 19  1  0  0  0  0
 19 20  2  0  0  0  0
 20 21  1  0  0  0  0
 20 25  1  0  0  0  0
 21 22  1  0  0  0  0
 21 23  1  0  0  0  0
 23 24  2  0  0  0  0
 25 33  1  0  0  0  0
 25 34  1  0  0  0  0
M  CHG  1  35  -1
M  END
$$$$
ZINC03797941
  -OEChem-08230709403D

 35 37  0     1  0  0  0  0  0999 V2000
   -3.2763    8.3860    2.6376 C   0  0  0  0  0  0  0  0  0  0  0  0
   -3.0916    7.6192    1.5020 C   0  0  0  0  0  0  0  0  0  0  0  0
   -1.8786    6.9953    1.2785 C   0  0  0  0  0  0  0  0  0  0  0  0
   -0.8460    7.1462    2.1851 C   0  0  0  0  0  0  0  0  0  0  0  0
   -1.0286    7.9176    3.3188 C   0  0  0  0  0  0  0  0  0  0  0  0
   -2.2448    8.5377    3.5446 C   0  0  0  0  0  0  0  0  0  0  0  0
    0.2679    8.1081    4.4575 Cl  0  0  0  0  0  0  0  0  0  0  0  0
   -1.6798    6.1554    0.0432 C   0  0  2  0  0  0  0  0  0  0  0  0
   -0.6672    5.7519    0.0373 H   0  0  0  0  0  0  0  0  0  0  0  0
   -1.8914    7.0203   -1.2011 C   0  0  0  0  0  0  0  0  0  0  0  0
   -0.8223    8.0806   -1.2635 C   0  0  0  0  0  0  0  0  0  0  0  0
    0.0222    8.1386   -0.4014 O   0  0  0  0  0  0  0  0  0  0  0  0
   -2.6724    5.0215    0.0415 C   0  0  0  0  0  0  0  0  0  0  0  0
   -4.0153    5.1426    0.0478 C   0  0  0  0  0  0  0  0  0  0  0  0
   -4.5829    3.9052    0.0438 N   0  0  0  0  0  0  0  0  0  0  0  0
   -5.5351    3.7203    0.0468 H   0  0  0  0  0  0  0  0  0  0  0  0
   -3.5807    2.9582    0.0347 C   0  0  0  0  0  0  0  0  0  0  0  0
   -2.3607    3.6443    0.0331 C   0  0  0  0  0  0  0  0  0  0  0  0
   -1.2066    2.9482    0.0292 N   0  0  0  0  0  0  0  0  0  0  0  0
   -1.2100    1.6365    0.0167 C   0  0  0  0  0  0  0  0  0  0  0  0
   -2.3706    0.9195    0.0183 N   0  0  0  0  0  0  0  0  0  0  0  0
   -2.3371   -0.0799    0.0131 H   0  0  0  0  0  0  0  0  0  0  0  0
   -3.5649    1.5510    0.0269 C   0  0  0  0  0  0  0  0  0  0  0  0
   -4.6062    0.9156    0.0276 O   0  0  0  0  0  0  0  0  0  0  0  0
   -0.0111    0.9658    0.0074 N   0  0  0  0  0  0  0  0  0  0  0  0
   -4.2257    8.8699    2.8137 H   0  0  0  0  0  0  0  0  0  0  0  0
   -3.8966    7.5046    0.7911 H   0  0  0  0  0  0  0  0  0  0  0  0
    0.1029    6.6618    2.0085 H   0  0  0  0  0  0  0  0  0  0  0  0
   -2.3878    9.1403    4.4293 H   0  0  0  0  0  0  0  0  0  0  0  0
   -1.8353    6.3949   -2.0921 H   0  0  0  0  0  0  0  0  0  0  0  0
   -2.8714    7.4949   -1.1513 H   0  0  0  0  0  0  0  0  0  0  0  0
   -4.5569    6.0769    0.0552 H   0  0  0  0  0  0  0  0  0  0  0  0
    0.0021   -0.0041    0.0020 H   0  0  0  0  0  0  0  0  0  0  0  0
    0.8223    1.4622    0.0021 H   0  0  0  0  0  0  0  0  0  0  0  0
   -0.8083    8.9606   -2.2770 O   0  5  0  0  0  0  0  0  0  0  0  0
  1  6  2  0  0  0  0
  1  2  1  0  0  0  0
  1 26  1  0  0  0  0
  2  3  2  0  0  0  0
  2 27  1  0  0  0  0
  3  4  1  0  0  0  0
  3  8  1  0  0  0  0
  4  5  2  0  0  0  0
  4 28  1  0  0  0  0
  5  6  1  0  0  0  0
  5  7  1  0  0  0  0
  6 29  1  0  0  0  0
  8  9  1  0  0  0  0
  8 10  1  0  0  0  0
  8 13  1  0  0  0  0
 10 11  1  0  0  0  0
 10 30  1  0  0  0  0
 10 31  1  0  0  0  0
 11 12  2  0  0  0  0
 11 35  1  0  0  0  0
 13 18  1  0  0  0  0
 13 14  2  0  0  0  0
 14 15  1  0  0  0  0
 14 32  1  0  0  0  0
 15 16  1  0  0  0  0
 15 17  1  0  0  0  0
 17 23  1  0  0  0  0
 17 18  2  0  0  0  0
 18 19  1  0  0  0  0
 19 20  2  0  0  0  0
 20 21  1  0  0  0  0
 20 25  1  0  0  0  0
 21 22  1  0  0  0  0
 21 23  1  0  0  0  0
 23 24  2  0  0  0  0
 25 33  1  0  0  0  0
 25 34  1  0  0  0  0
M  CHG  1  35  -1
M  END
$$$$
ZINC03832269
  -OEChem-08230709403D

 33 35  0     1  0  0  0  0  0999 V2000
    1.0582    5.2753    4.9816 C   0  0  0  0  0  0  0  0  0  0  0  0
    1.0844    4.5469    3.8536 C   0  0  0  0  0  0  0  0  0  0  0  0
    1.0041    5.3749    2.7639 N   0  0  0  0  0  0  0  0  0  0  0  0
    0.9128    6.6774    3.1711 C   0  0  0  0  0  0  0  0  0  0  0  0
    0.9424    6.6754    4.5780 C   0  0  0  0  0  0  0  0  0  0  0  0
    0.8630    7.9019    5.2546 C   0  0  0  0  0  0  0  0  0  0  0  0
    0.7629    9.0150    4.5337 N   0  0  0  0  0  0  0  0  0  0  0  0
    0.7386    8.9714    3.2138 C   0  0  0  0  0  0  0  0  0  0  0  0
    0.8104    7.8450    2.5381 N   0  0  0  0  0  0  0  0  0  0  0  0
    0.8881    7.9522    6.6367 N   0  0  0  0  0  0  0  0  0  0  0  0
    1.0090    4.9294    1.3682 C   0  0  1  0  0  0  0  0  0  0  0  0
    0.3291    5.5396    0.7736 H   0  0  0  0  0  0  0  0  0  0  0  0
    2.4389    4.9960    0.7875 C   0  0  1  0  0  0  0  0  0  0  0  0
    3.1801    4.9380    1.5845 H   0  0  0  0  0  0  0  0  0  0  0  0
    2.5304    3.7548   -0.1282 C   0  0  1  0  0  0  0  0  0  0  0  0
    3.3152    3.0821    0.2176 H   0  0  0  0  0  0  0  0  0  0  0  0
    1.1449    3.0852    0.0077 C   0  0  2  0  0  0  0  0  0  0  0  0
    0.4861    3.4094   -0.7979 H   0  0  0  0  0  0  0  0  0  0  0  0
    0.6410    3.5353    1.2842 O   0  0  0  0  0  0  0  0  0  0  0  0
    1.2864    1.5618   -0.0018 C   0  0  0  0  0  0  0  0  0  0  0  0
   -0.0110    0.9628    0.0073 O   0  0  0  0  0  0  0  0  0  0  0  0
    2.7661    4.1475   -1.4818 O   0  0  0  0  0  0  0  0  0  0  0  0
    2.6154    6.1931    0.0273 O   0  0  0  0  0  0  0  0  0  0  0  0
    1.1083    4.8987    5.9926 H   0  0  0  0  0  0  0  0  0  0  0  0
    1.1607    3.4704    3.8113 H   0  0  0  0  0  0  0  0  0  0  0  0
    0.6560    9.8989    2.6667 H   0  0  0  0  0  0  0  0  0  0  0  0
    0.8324    8.8069    7.0921 H   0  0  0  0  0  0  0  0  0  0  0  0
    0.9614    7.1328    7.1506 H   0  0  0  0  0  0  0  0  0  0  0  0
    1.8401    1.2428    0.8812 H   0  0  0  0  0  0  0  0  0  0  0  0
    1.8231    1.2523   -0.8987 H   0  0  0  0  0  0  0  0  0  0  0  0
    0.0021   -0.0041    0.0020 H   0  0  0  0  0  0  0  0  0  0  0  0
    2.7730    3.4117   -2.1092 H   0  0  0  0  0  0  0  0  0  0  0  0
    3.4755    6.2582   -0.4097 H   0  0  0  0  0  0  0  0  0  0  0  0
  1  5  1  0  0  0  0
  1  2  2  0  0  0  0
  1 24  1  0  0  0  0
  2  3  1  0  0  0  0
  2 25  1  0  0  0  0
  3  4  1  0  0  0  0
  3 11  1  0  0  0  0
  4  9  2  0  0  0  0
  4  5  1  0  0  0  0
  5  6  2  0  0  0  0
  6  7  1  0  0  0  0
  6 10  1  0  0  0  0
  7  8  2  0  0  0  0
  8  9  1  0  0  0  0
  8 26  1  0  0  0  0
 10 27  1  0  0  0  0
 10 28  1  0  0  0  0
 11 12  1  0  0  0  0
 11 19  1  0  0  0  0
 11 13  1  0  0  0  0
 13 14  1  0  0  0  0
 13 15  1  0  0  0  0
 13 23  1  0  0  0  0
 15 16  1  0  0  0  0
 15 17  1  0  0  0  0
 15 22  1  0  0  0  0
 17 18  1  0  0  0  0
 17 19  1  0  0  0  0
 17 20  1  0  0  0  0
 20 21  1  0  0  0  0
 20 29  1  0  0  0  0
 20 30  1  0  0  0  0
 21 31  1  0  0  0  0
 22 32  1  0  0  0  0
 23 33  1  0  0  0  0
M  END
$$$$
ZINC04617929
  -OEChem-08230709403D

 36 38  0     1  0  0  0  0  0999 V2000
    2.4043    1.3063    7.0986 C   0  0  0  0  0  0  0  0  0  0  0  0
    1.6324    1.1977    5.8582 N   0  3  0  0  0  0  0  0  0  0  0  0
    1.6600    2.1928    4.9878 C   0  0  0  0  0  0  0  0  0  0  0  0
    0.9927    2.1616    3.8577 N   0  0  0  0  0  0  0  0  0  0  0  0
    0.2432    1.0982    3.5387 C   0  0  0  0  0  0  0  0  0  0  0  0
    0.1825    0.0189    4.4380 C   0  0  0  0  0  0  0  0  0  0  0  0
    0.9113    0.1053    5.6329 C   0  0  0  0  0  0  0  0  0  0  0  0
    0.8907   -0.9304    6.5506 N   0  0  0  0  0  0  0  0  0  0  0  0
   -0.6351   -0.9215    3.8722 N   0  0  0  0  0  0  0  0  0  0  0  0
   -0.8744   -1.8077    4.2689 H   0  0  0  0  0  0  0  0  0  0  0  0
   -1.0779   -0.4242    2.6394 N   0  0  0  0  0  0  0  0  0  0  0  0
   -0.5713    0.7596    2.4370 C   0  0  0  0  0  0  0  0  0  0  0  0
   -0.8104    1.6215    1.2242 C   0  0  1  0  0  0  0  0  0  0  0  0
   -0.5453    2.6584    1.4306 H   0  0  0  0  0  0  0  0  0  0  0  0
   -0.0127    1.0858    0.0080 C   0  0  1  0  0  0  0  0  0  0  0  0
    0.0021   -0.0041    0.0020 H   0  0  0  0  0  0  0  0  0  0  0  0
   -0.8325    1.6338   -1.1855 C   0  0  1  0  0  0  0  0  0  0  0  0
   -0.9054    0.8849   -1.9741 H   0  0  0  0  0  0  0  0  0  0  0  0
   -2.2226    1.9242   -0.5872 C   0  0  2  0  0  0  0  0  0  0  0  0
   -2.4416    2.9896   -0.6586 H   0  0  0  0  0  0  0  0  0  0  0  0
   -2.1859    1.5242    0.7930 O   0  0  0  0  0  0  0  0  0  0  0  0
   -3.2887    1.1199   -1.3338 C   0  0  0  0  0  0  0  0  0  0  0  0
   -4.5839    1.4823   -0.8510 O   0  0  0  0  0  0  0  0  0  0  0  0
   -0.2414    2.8332   -1.6895 O   0  0  0  0  0  0  0  0  0  0  0  0
    1.3161    1.6115   -0.0019 O   0  0  0  0  0  0  0  0  0  0  0  0
    1.7868    1.7631    7.8720 H   0  0  0  0  0  0  0  0  0  0  0  0
    2.7148    0.3125    7.4214 H   0  0  0  0  0  0  0  0  0  0  0  0
    3.2855    1.9239    6.9253 H   0  0  0  0  0  0  0  0  0  0  0  0
    2.2550    3.0649    5.2152 H   0  0  0  0  0  0  0  0  0  0  0  0
    0.3679   -1.7274    6.3707 H   0  0  0  0  0  0  0  0  0  0  0  0
    1.3989   -0.8592    7.3738 H   0  0  0  0  0  0  0  0  0  0  0  0
   -3.2253    1.3349   -2.4005 H   0  0  0  0  0  0  0  0  0  0  0  0
   -3.1236    0.0554   -1.1673 H   0  0  0  0  0  0  0  0  0  0  0  0
   -5.3102    1.0103   -1.2808 H   0  0  0  0  0  0  0  0  0  0  0  0
   -0.7147    3.2201   -2.4388 H   0  0  0  0  0  0  0  0  0  0  0  0
    1.8404    1.3409   -0.7679 H   0  0  0  0  0  0  0  0  0  0  0  0
  1  2  1  0  0  0  0
  1 26  1  0  0  0  0
  1 27  1  0  0  0  0
  1 28  1  0  0  0  0
  2  7  2  0  0  0  0
  2  3  1  0  0  0  0
  3  4  2  0  0  0  0
  3 29  1  0  0  0  0
  4  5  1  0  0  0  0
  5 12  1  0  0  0  0
  5  6  2  0  0  0  0
  6  7  1  0  0  0  0
  6  9  1  0  0  0  0
  7  8  1  0  0  0  0
  8 30  1  0  0  0  0
  8 31  1  0  0  0  0
  9 10  1  0  0  0  0
  9 11  1  0  0  0  0
 11 12  2  0  0  0  0
 12 13  1  0  0  0  0
 13 14  1  0  0  0  0
 13 21  1  0  0  0  0
 13 15  1  0  0  0  0
 15 16  1  0  0  0  0
 15 17  1  0  0  0  0
 15 25  1  0  0  0  0
 17 18  1  0  0  0  0
 17 19  1  0  0  0  0
 17 24  1  0  0  0  0
 19 20  1  0  0  0  0
 19 21  1  0  0  0  0
 19 22  1  0  0  0  0
 22 23  1  0  0  0  0
 22 32  1  0  0  0  0
 22 33  1  0  0  0  0
 23 34  1  0  0  0  0
 24 35  1  0  0  0  0
 25 36  1  0  0  0  0
M  CHG  1   2   1
M  END
$$$$
ZINC04617930
  -OEChem-08230709403D

 36 38  0     1  0  0  0  0  0999 V2000
   -3.3315    2.6663    0.0506 C   0  0  0  0  0  0  0  0  0  0  0  0
   -2.5397    3.7582    0.0482 C   0  0  0  0  0  0  0  0  0  0  0  0
   -1.1984    3.3196    0.0318 C   0  0  0  0  0  0  0  0  0  0  0  0
   -1.2354    1.9209    0.0183 C   0  0  0  0  0  0  0  0  0  0  0  0
   -2.5585    1.5459    0.0365 N   0  0  0  0  0  0  0  0  0  0  0  0
   -2.8869    0.6332    0.0350 H   0  0  0  0  0  0  0  0  0  0  0  0
   -0.0145    1.2154    0.0087 C   0  0  0  0  0  0  0  0  0  0  0  0
    0.0021   -0.0041    0.0020 O   0  0  0  0  0  0  0  0  0  0  0  0
    1.1365    1.9230    0.0015 N   0  0  0  0  0  0  0  0  0  0  0  0
    2.0135    1.4427   -0.0091 H   0  0  0  0  0  0  0  0  0  0  0  0
    1.1127    3.2810    0.0086 C   0  0  0  0  0  0  0  0  0  0  0  0
   -0.0015    3.9535    0.0233 N   0  0  0  0  0  0  0  0  0  0  0  0
   -3.0047    5.1916    0.0604 C   0  0  0  0  0  0  0  0  0  0  0  0
   -3.1421    7.2032   -1.2943 C   0  0  0  0  0  0  0  0  0  0  0  0
   -3.8912    7.5065   -2.6158 C   0  0  1  0  0  0  0  0  0  0  0  0
   -3.1987    7.5516   -3.4563 H   0  0  0  0  0  0  0  0  0  0  0  0
   -4.8289    6.2762   -2.7339 C   0  0  2  0  0  0  0  0  0  0  0  0
   -5.7283    6.4182   -2.1347 H   0  0  0  0  0  0  0  0  0  0  0  0
   -3.9695    5.1280   -2.1644 C   0  0  0  0  0  0  0  0  0  0  0  0
   -5.1681    6.0242   -4.0990 O   0  0  0  0  0  0  0  0  0  0  0  0
   -4.6978    8.8017   -2.5038 C   0  0  0  0  0  0  0  0  0  0  0  0
   -3.8078    9.9196   -2.5141 O   0  0  0  0  0  0  0  0  0  0  0  0
   -4.4114    2.6789    0.0614 H   0  0  0  0  0  0  0  0  0  0  0  0
    2.0485    3.8201    0.0022 H   0  0  0  0  0  0  0  0  0  0  0  0
   -4.0316    5.2374    0.4229 H   0  0  0  0  0  0  0  0  0  0  0  0
   -2.3610    5.7768    0.7171 H   0  0  0  0  0  0  0  0  0  0  0  0
   -3.7483    7.4989   -0.4380 H   0  0  0  0  0  0  0  0  0  0  0  0
   -2.1814    7.7178   -1.2759 H   0  0  0  0  0  0  0  0  0  0  0  0
   -3.4935    4.5819   -2.9788 H   0  0  0  0  0  0  0  0  0  0  0  0
   -4.5933    4.4537   -1.5776 H   0  0  0  0  0  0  0  0  0  0  0  0
   -5.6916    5.2223   -4.2326 H   0  0  0  0  0  0  0  0  0  0  0  0
   -5.3845    8.8762   -3.3470 H   0  0  0  0  0  0  0  0  0  0  0  0
   -5.2648    8.7973   -1.5729 H   0  0  0  0  0  0  0  0  0  0  0  0
   -4.2513   10.7762   -2.4461 H   0  0  0  0  0  0  0  0  0  0  0  0
   -2.9321    5.7440   -1.3175 N   0  3  2  0  0  0  0  0  0  0  0  0
   -2.0062    5.5406   -1.7118 H   0  0  0  0  0  0  0  0  0  0  0  0
  1  5  1  0  0  0  0
  1  2  2  0  0  0  0
  1 23  1  0  0  0  0
  2  3  1  0  0  0  0
  2 13  1  0  0  0  0
  3 12  1  0  0  0  0
  3  4  2  0  0  0  0
  4  5  1  0  0  0  0
  4  7  1  0  0  0  0
  5  6  1  0  0  0  0
  7  8  2  0  0  0  0
  7  9  1  0  0  0  0
  9 10  1  0  0  0  0
  9 11  1  0  0  0  0
 11 12  2  0  0  0  0
 11 24  1  0  0  0  0
 13 25  1  0  0  0  0
 13 26  1  0  0  0  0
 13 35  1  0  0  0  0
 14 15  1  0  0  0  0
 14 27  1  0  0  0  0
 14 28  1  0  0  0  0
 14 35  1  0  0  0  0
 15 16  1  0  0  0  0
 15 17  1  0  0  0  0
 15 21  1  0  0  0  0
 17 18  1  0  0  0  0
 17 19  1  0  0  0  0
 17 20  1  0  0  0  0
 19 29  1  0  0  0  0
 19 30  1  0  0  0  0
 19 35  1  0  0  0  0
 20 31  1  0  0  0  0
 21 22  1  0  0  0  0
 21 32  1  0  0  0  0
 21 33  1  0  0  0  0
 22 34  1  0  0  0  0
 35 36  1  0  0  0  0
M  CHG  1  35   1
M  END
$$$$
ZINC04617930
  -OEChem-08230709403D

 36 38  0     1  0  0  0  0  0999 V2000
   -3.3315    2.6663    0.0506 C   0  0  0  0  0  0  0  0  0  0  0  0
   -2.5397    3.7582    0.0482 C   0  0  0  0  0  0  0  0  0  0  0  0
   -1.1984    3.3196    0.0318 C   0  0  0  0  0  0  0  0  0  0  0  0
   -1.2354    1.9209    0.0183 C   0  0  0  0  0  0  0  0  0  0  0  0
   -2.5585    1.5459    0.0365 N   0  0  0  0  0  0  0  0  0  0  0  0
   -2.8869    0.6332    0.0350 H   0  0  0  0  0  0  0  0  0  0  0  0
   -0.0147    1.2156   -0.0091 C   0  0  0  0  0  0  0  0  0  0  0  0
    0.0020   -0.0039   -0.0165 O   0  0  0  0  0  0  0  0  0  0  0  0
    1.1360    1.9233   -0.0326 N   0  0  0  0  0  0  0  0  0  0  0  0
    0.0261    4.9533    0.0114 H   0  0  0  0  0  0  0  0  0  0  0  0
    1.1121    3.2813   -0.0246 C   0  0  0  0  0  0  0  0  0  0  0  0
   -0.0018    3.9537    0.0064 N   0  0  0  0  0  0  0  0  0  0  0  0
   -3.0047    5.1916    0.0604 C   0  0  0  0  0  0  0  0  0  0  0  0
   -3.1421    7.2032   -1.2943 C   0  0  0  0  0  0  0  0  0  0  0  0
   -3.8912    7.5065   -2.6158 C   0  0  1  0  0  0  0  0  0  0  0  0
   -3.1987    7.5516   -3.4563 H   0  0  0  0  0  0  0  0  0  0  0  0
   -4.8289    6.2762   -2.7339 C   0  0  2  0  0  0  0  0  0  0  0  0
   -5.7283    6.4182   -2.1347 H   0  0  0  0  0  0  0  0  0  0  0  0
   -3.9695    5.1280   -2.1644 C   0  0  0  0  0  0  0  0  0  0  0  0
   -5.1681    6.0242   -4.0990 O   0  0  0  0  0  0  0  0  0  0  0  0
   -4.6978    8.8017   -2.5038 C   0  0  0  0  0  0  0  0  0  0  0  0
   -3.8078    9.9196   -2.5141 O   0  0  0  0  0  0  0  0  0  0  0  0
   -4.4114    2.6789    0.0614 H   0  0  0  0  0  0  0  0  0  0  0  0
    2.0477    3.8206   -0.0446 H   0  0  0  0  0  0  0  0  0  0  0  0
   -4.0316    5.2374    0.4229 H   0  0  0  0  0  0  0  0  0  0  0  0
   -2.3610    5.7768    0.7171 H   0  0  0  0  0  0  0  0  0  0  0  0
   -3.7483    7.4989   -0.4380 H   0  0  0  0  0  0  0  0  0  0  0  0
   -2.1814    7.7178   -1.2759 H   0  0  0  0  0  0  0  0  0  0  0  0
   -3.4935    4.5819   -2.9788 H   0  0  0  0  0  0  0  0  0  0  0  0
   -4.5933    4.4537   -1.5776 H   0  0  0  0  0  0  0  0  0  0  0  0
   -5.6916    5.2223   -4.2326 H   0  0  0  0  0  0  0  0  0  0  0  0
   -5.3845    8.8762   -3.3470 H   0  0  0  0  0  0  0  0  0  0  0  0
   -5.2648    8.7973   -1.5729 H   0  0  0  0  0  0  0  0  0  0  0  0
   -4.2513   10.7762   -2.4461 H   0  0  0  0  0  0  0  0  0  0  0  0
   -2.9321    5.7440   -1.3175 N   0  3  2  0  0  0  0  0  0  0  0  0
   -2.0062    5.5406   -1.7118 H   0  0  0  0  0  0  0  0  0  0  0  0
  1  5  1  0  0  0  0
  1  2  2  0  0  0  0
  1 23  1  0  0  0  0
  2  3  1  0  0  0  0
  2 13  1  0  0  0  0
  3  4  2  0  0  0  0
  3 12  1  0  0  0  0
  4  5  1  0  0  0  0
  4  7  1  0  0  0  0
  5  6  1  0  0  0  0
  7  9  1  0  0  0  0
  7  8  2  0  0  0  0
  9 11  2  0  0  0  0
 10 12  1  0  0  0  0
 11 24  1  0  0  0  0
 11 12  1  0  0  0  0
 13 25  1  0  0  0  0
 13 26  1  0  0  0  0
 13 35  1  0  0  0  0
 14 15  1  0  0  0  0
 14 27  1  0  0  0  0
 14 28  1  0  0  0  0
 14 35  1  0  0  0  0
 15 16  1  0  0  0  0
 15 17  1  0  0  0  0
 15 21  1  0  0  0  0
 17 18  1  0  0  0  0
 17 19  1  0  0  0  0
 17 20  1  0  0  0  0
 19 29  1  0  0  0  0
 19 30  1  0  0  0  0
 19 35  1  0  0  0  0
 20 31  1  0  0  0  0
 21 22  1  0  0  0  0
 21 32  1  0  0  0  0
 21 33  1  0  0  0  0
 22 34  1  0  0  0  0
 35 36  1  0  0  0  0
M  CHG  1  35   1
M  END
$$$$
ZINC04617930
  -OEChem-08230709403D

 36 38  0     1  0  0  0  0  0999 V2000
   -3.3313    2.6666    0.0564 C   0  0  0  0  0  0  0  0  0  0  0  0
   -2.5397    3.7584    0.0303 C   0  0  0  0  0  0  0  0  0  0  0  0
   -1.1986    3.3196    0.0083 C   0  0  0  0  0  0  0  0  0  0  0  0
   -1.2353    1.9209    0.0238 C   0  0  0  0  0  0  0  0  0  0  0  0
   -2.5584    1.5459    0.0407 N   0  0  0  0  0  0  0  0  0  0  0  0
   -2.8867    0.6331    0.0422 H   0  0  0  0  0  0  0  0  0  0  0  0
   -0.0143    1.2155    0.0196 C   0  0  0  0  0  0  0  0  0  0  0  0
    0.0025   -0.0040    0.0228 O   0  0  0  0  0  0  0  0  0  0  0  0
    1.1366    1.9232    0.0120 N   0  0  0  0  0  0  0  0  0  0  0  0
   -0.9357   -0.3502    0.0283 H   0  0  0  0  0  0  0  0  0  0  0  0
    1.1122    3.2808   -0.0364 C   0  0  0  0  0  0  0  0  0  0  0  0
   -0.0019    3.9534   -0.0221 N   0  0  0  0  0  0  0  0  0  0  0  0
   -3.0049    5.1918    0.0232 C   0  0  0  0  0  0  0  0  0  0  0  0
   -3.1557    7.1807   -1.3632 C   0  0  0  0  0  0  0  0  0  0  0  0
   -3.9174    7.4620   -2.6824 C   0  0  1  0  0  0  0  0  0  0  0  0
   -3.2330    7.4932   -3.5301 H   0  0  0  0  0  0  0  0  0  0  0  0
   -4.8560    6.2299   -2.7711 C   0  0  2  0  0  0  0  0  0  0  0  0
   -5.7496    6.3817   -2.1658 H   0  0  0  0  0  0  0  0  0  0  0  0
   -3.9909    5.0913   -2.1909 C   0  0  0  0  0  0  0  0  0  0  0  0
   -5.2082    5.9553   -4.1285 O   0  0  0  0  0  0  0  0  0  0  0  0
   -4.7232    8.7588   -2.5841 C   0  0  0  0  0  0  0  0  0  0  0  0
   -3.8336    9.8765   -2.6214 O   0  0  0  0  0  0  0  0  0  0  0  0
   -4.4111    2.6793    0.0750 H   0  0  0  0  0  0  0  0  0  0  0  0
    2.0472    3.8187   -0.0883 H   0  0  0  0  0  0  0  0  0  0  0  0
   -4.0283    5.2435    0.3947 H   0  0  0  0  0  0  0  0  0  0  0  0
   -2.3551    5.7878    0.6639 H   0  0  0  0  0  0  0  0  0  0  0  0
   -3.7537    7.4905   -0.5062 H   0  0  0  0  0  0  0  0  0  0  0  0
   -2.1949    7.6955   -1.3626 H   0  0  0  0  0  0  0  0  0  0  0  0
   -3.5226    4.5318   -3.0007 H   0  0  0  0  0  0  0  0  0  0  0  0
   -4.6089    4.4268   -1.5871 H   0  0  0  0  0  0  0  0  0  0  0  0
   -5.7327    5.1513   -4.2438 H   0  0  0  0  0  0  0  0  0  0  0  0
   -5.4179    8.8193   -3.4218 H   0  0  0  0  0  0  0  0  0  0  0  0
   -5.2813    8.7698   -1.6479 H   0  0  0  0  0  0  0  0  0  0  0  0
   -4.2766   10.7340   -2.5634 H   0  0  0  0  0  0  0  0  0  0  0  0
   -2.9456    5.7213   -1.3643 N   0  3  2  0  0  0  0  0  0  0  0  0
   -2.0235    5.5114   -1.7640 H   0  0  0  0  0  0  0  0  0  0  0  0
  1  5  1  0  0  0  0
  1  2  2  0  0  0  0
  1 23  1  0  0  0  0
  2  3  1  0  0  0  0
  2 13  1  0  0  0  0
  3  4  2  0  0  0  0
  3 12  1  0  0  0  0
  4  5  1  0  0  0  0
  4  7  1  0  0  0  0
  5  6  1  0  0  0  0
  7  9  2  0  0  0  0
  7  8  1  0  0  0  0
  8 10  1  0  0  0  0
  9 11  1  0  0  0  0
 11 24  1  0  0  0  0
 11 12  2  0  0  0  0
 13 25  1  0  0  0  0
 13 26  1  0  0  0  0
 13 35  1  0  0  0  0
 14 15  1  0  0  0  0
 14 27  1  0  0  0  0
 14 28  1  0  0  0  0
 14 35  1  0  0  0  0
 15 16  1  0  0  0  0
 15 17  1  0  0  0  0
 15 21  1  0  0  0  0
 17 18  1  0  0  0  0
 17 19  1  0  0  0  0
 17 20  1  0  0  0  0
 19 29  1  0  0  0  0
 19 30  1  0  0  0  0
 19 35  1  0  0  0  0
 20 31  1  0  0  0  0
 21 22  1  0  0  0  0
 21 32  1  0  0  0  0
 21 33  1  0  0  0  0
 22 34  1  0  0  0  0
 35 36  1  0  0  0  0
M  CHG  1  35   1
M  END
$$$$
ZINC04617931
  -OEChem-08230709403D

 31 33  0     1  0  0  0  0  0999 V2000
    1.6532    2.2405    4.9673 C   0  0  0  0  0  0  0  0  0  0  0  0
    1.6374    1.2275    5.8730 N   0  0  0  0  0  0  0  0  0  0  0  0
    2.1638    1.3103    6.7192 H   0  0  0  0  0  0  0  0  0  0  0  0
    0.9158    0.1090    5.6390 C   0  0  0  0  0  0  0  0  0  0  0  0
    0.8974   -0.8033    6.4471 O   0  0  0  0  0  0  0  0  0  0  0  0
    0.1820    0.0241    4.4324 C   0  0  0  0  0  0  0  0  0  0  0  0
    0.2407    1.0971    3.5354 C   0  0  0  0  0  0  0  0  0  0  0  0
    0.9869    2.1850    3.8520 N   0  0  0  0  0  0  0  0  0  0  0  0
   -0.5713    0.7596    2.4370 C   0  0  0  0  0  0  0  0  0  0  0  0
   -1.0789   -0.4265    2.6398 N   0  0  0  0  0  0  0  0  0  0  0  0
   -0.6330   -0.9191    3.8735 N   0  0  0  0  0  0  0  0  0  0  0  0
   -0.8695   -1.8044    4.2739 H   0  0  0  0  0  0  0  0  0  0  0  0
   -0.8104    1.6215    1.2242 C   0  0  1  0  0  0  0  0  0  0  0  0
   -0.5453    2.6584    1.4306 H   0  0  0  0  0  0  0  0  0  0  0  0
   -0.0127    1.0858    0.0080 C   0  0  1  0  0  0  0  0  0  0  0  0
    0.0021   -0.0041    0.0020 H   0  0  0  0  0  0  0  0  0  0  0  0
   -0.8325    1.6338   -1.1855 C   0  0  1  0  0  0  0  0  0  0  0  0
   -0.9054    0.8849   -1.9741 H   0  0  0  0  0  0  0  0  0  0  0  0
   -2.2226    1.9242   -0.5872 C   0  0  2  0  0  0  0  0  0  0  0  0
   -2.4416    2.9896   -0.6586 H   0  0  0  0  0  0  0  0  0  0  0  0
   -2.1859    1.5242    0.7930 O   0  0  0  0  0  0  0  0  0  0  0  0
   -3.2887    1.1199   -1.3338 C   0  0  0  0  0  0  0  0  0  0  0  0
   -4.5839    1.4823   -0.8510 O   0  0  0  0  0  0  0  0  0  0  0  0
   -0.2414    2.8332   -1.6895 O   0  0  0  0  0  0  0  0  0  0  0  0
    1.3161    1.6115   -0.0019 O   0  0  0  0  0  0  0  0  0  0  0  0
    2.2395    3.1219    5.1811 H   0  0  0  0  0  0  0  0  0  0  0  0
   -3.2253    1.3349   -2.4005 H   0  0  0  0  0  0  0  0  0  0  0  0
   -3.1236    0.0554   -1.1673 H   0  0  0  0  0  0  0  0  0  0  0  0
   -5.3102    1.0103   -1.2808 H   0  0  0  0  0  0  0  0  0  0  0  0
   -0.7147    3.2201   -2.4388 H   0  0  0  0  0  0  0  0  0  0  0  0
    1.8404    1.3409   -0.7679 H   0  0  0  0  0  0  0  0  0  0  0  0
  1  8  2  0  0  0  0
  1  2  1  0  0  0  0
  1 26  1  0  0  0  0
  2  3  1  0  0  0  0
  2  4  1  0  0  0  0
  4  5  2  0  0  0  0
  4  6  1  0  0  0  0
  6 11  1  0  0  0  0
  6  7  2  0  0  0  0
  7  8  1  0  0  0  0
  7  9  1  0  0  0  0
  9 10  2  0  0  0  0
  9 13  1  0  0  0  0
 10 11  1  0  0  0  0
 11 12  1  0  0  0  0
 13 14  1  0  0  0  0
 13 21  1  0  0  0  0
 13 15  1  0  0  0  0
 15 16  1  0  0  0  0
 15 17  1  0  0  0  0
 15 25  1  0  0  0  0
 17 18  1  0  0  0  0
 17 19  1  0  0  0  0
 17 24  1  0  0  0  0
 19 20  1  0  0  0  0
 19 21  1  0  0  0  0
 19 22  1  0  0  0  0
 22 23  1  0  0  0  0
 22 27  1  0  0  0  0
 22 28  1  0  0  0  0
 23 29  1  0  0  0  0
 24 30  1  0  0  0  0
 25 31  1  0  0  0  0
M  END
$$$$
ZINC04617931
  -OEChem-08230709403D

 31 33  0     1  0  0  0  0  0999 V2000
    1.6470    2.2438    4.9708 C   0  0  0  0  0  0  0  0  0  0  0  0
    1.6311    1.2308    5.8766 N   0  0  0  0  0  0  0  0  0  0  0  0
    1.0219    2.9585    3.2191 H   0  0  0  0  0  0  0  0  0  0  0  0
    0.9125    0.1108    5.6409 C   0  0  0  0  0  0  0  0  0  0  0  0
    0.8940   -0.8015    6.4491 O   0  0  0  0  0  0  0  0  0  0  0  0
    0.1820    0.0241    4.4324 C   0  0  0  0  0  0  0  0  0  0  0  0
    0.2407    1.0971    3.5354 C   0  0  0  0  0  0  0  0  0  0  0  0
    0.9837    2.1867    3.8538 N   0  0  0  0  0  0  0  0  0  0  0  0
   -0.5713    0.7596    2.4370 C   0  0  0  0  0  0  0  0  0  0  0  0
   -1.0789   -0.4265    2.6398 N   0  0  0  0  0  0  0  0  0  0  0  0
   -0.6330   -0.9191    3.8735 N   0  0  0  0  0  0  0  0  0  0  0  0
   -0.8695   -1.8044    4.2739 H   0  0  0  0  0  0  0  0  0  0  0  0
   -0.8104    1.6215    1.2242 C   0  0  1  0  0  0  0  0  0  0  0  0
   -0.5453    2.6584    1.4306 H   0  0  0  0  0  0  0  0  0  0  0  0
   -0.0127    1.0858    0.0080 C   0  0  1  0  0  0  0  0  0  0  0  0
    0.0021   -0.0041    0.0020 H   0  0  0  0  0  0  0  0  0  0  0  0
   -0.8325    1.6338   -1.1855 C   0  0  1  0  0  0  0  0  0  0  0  0
   -0.9054    0.8849   -1.9741 H   0  0  0  0  0  0  0  0  0  0  0  0
   -2.2226    1.9242   -0.5872 C   0  0  2  0  0  0  0  0  0  0  0  0
   -2.4416    2.9896   -0.6586 H   0  0  0  0  0  0  0  0  0  0  0  0
   -2.1859    1.5242    0.7930 O   0  0  0  0  0  0  0  0  0  0  0  0
   -3.2887    1.1199   -1.3338 C   0  0  0  0  0  0  0  0  0  0  0  0
   -4.5839    1.4823   -0.8510 O   0  0  0  0  0  0  0  0  0  0  0  0
   -0.2414    2.8332   -1.6895 O   0  0  0  0  0  0  0  0  0  0  0  0
    1.3161    1.6115   -0.0019 O   0  0  0  0  0  0  0  0  0  0  0  0
    2.2307    3.1265    5.1861 H   0  0  0  0  0  0  0  0  0  0  0  0
   -3.2253    1.3349   -2.4005 H   0  0  0  0  0  0  0  0  0  0  0  0
   -3.1236    0.0554   -1.1673 H   0  0  0  0  0  0  0  0  0  0  0  0
   -5.3102    1.0103   -1.2808 H   0  0  0  0  0  0  0  0  0  0  0  0
   -0.7147    3.2201   -2.4388 H   0  0  0  0  0  0  0  0  0  0  0  0
    1.8404    1.3409   -0.7679 H   0  0  0  0  0  0  0  0  0  0  0  0
  1 26  1  0  0  0  0
  1  8  1  0  0  0  0
  1  2  2  0  0  0  0
  2  4  1  0  0  0  0
  3  8  1  0  0  0  0
  4  5  2  0  0  0  0
  4  6  1  0  0  0  0
  6 11  1  0  0  0  0
  6  7  2  0  0  0  0
  7  9  1  0  0  0  0
  7  8  1  0  0  0  0
  9 10  2  0  0  0  0
  9 13  1  0  0  0  0
 10 11  1  0  0  0  0
 11 12  1  0  0  0  0
 13 14  1  0  0  0  0
 13 21  1  0  0  0  0
 13 15  1  0  0  0  0
 15 16  1  0  0  0  0
 15 17  1  0  0  0  0
 15 25  1  0  0  0  0
 17 18  1  0  0  0  0
 17 19  1  0  0  0  0
 17 24  1  0  0  0  0
 19 20  1  0  0  0  0
 19 21  1  0  0  0  0
 19 22  1  0  0  0  0
 22 23  1  0  0  0  0
 22 27  1  0  0  0  0
 22 28  1  0  0  0  0
 23 29  1  0  0  0  0
 24 30  1  0  0  0  0
 25 31  1  0  0  0  0
M  END
$$$$
ZINC04617931
  -OEChem-08230709403D

 31 33  0     1  0  0  0  0  0999 V2000
    1.6448    2.2449    4.9721 C   0  0  0  0  0  0  0  0  0  0  0  0
    1.6666    1.2126    5.8560 N   0  0  0  0  0  0  0  0  0  0  0  0
    0.3572   -1.5621    6.0802 H   0  0  0  0  0  0  0  0  0  0  0  0
    0.9462    0.0934    5.6215 C   0  0  0  0  0  0  0  0  0  0  0  0
    0.9418   -0.8260    6.4216 O   0  0  0  0  0  0  0  0  0  0  0  0
    0.1974    0.0162    4.4236 C   0  0  0  0  0  0  0  0  0  0  0  0
    0.2363    1.0994    3.5379 C   0  0  0  0  0  0  0  0  0  0  0  0
    0.9784    2.1894    3.8569 N   0  0  0  0  0  0  0  0  0  0  0  0
   -0.5747    0.7614    2.4389 C   0  0  0  0  0  0  0  0  0  0  0  0
   -1.0834   -0.4243    2.6426 N   0  0  0  0  0  0  0  0  0  0  0  0
   -0.6212   -0.9252    3.8670 N   0  0  0  0  0  0  0  0  0  0  0  0
   -0.8501   -1.8144    4.2631 H   0  0  0  0  0  0  0  0  0  0  0  0
   -0.8174    1.6252    1.2282 C   0  0  1  0  0  0  0  0  0  0  0  0
   -0.5563    2.6626    1.4370 H   0  0  0  0  0  0  0  0  0  0  0  0
   -0.0180    1.0954    0.0106 C   0  0  1  0  0  0  0  0  0  0  0  0
    0.0010    0.0056    0.0020 H   0  0  0  0  0  0  0  0  0  0  0  0
   -0.8403    1.6431   -1.1814 C   0  0  1  0  0  0  0  0  0  0  0  0
   -0.9105    0.8957   -1.9718 H   0  0  0  0  0  0  0  0  0  0  0  0
   -2.2313    1.9267   -0.5821 C   0  0  2  0  0  0  0  0  0  0  0  0
   -2.4544    2.9914   -0.6509 H   0  0  0  0  0  0  0  0  0  0  0  0
   -2.1927    1.5236    0.7972 O   0  0  0  0  0  0  0  0  0  0  0  0
   -3.2945    1.1200   -1.3303 C   0  0  0  0  0  0  0  0  0  0  0  0
   -4.5910    1.4763   -0.8463 O   0  0  0  0  0  0  0  0  0  0  0  0
   -0.2539    2.8459   -1.6828 O   0  0  0  0  0  0  0  0  0  0  0  0
    1.3087    1.6263    0.0015 O   0  0  0  0  0  0  0  0  0  0  0  0
    2.2000    3.1416    5.2044 H   0  0  0  0  0  0  0  0  0  0  0  0
   -3.2322    1.3378   -2.3965 H   0  0  0  0  0  0  0  0  0  0  0  0
   -3.1252    0.0558   -1.1663 H   0  0  0  0  0  0  0  0  0  0  0  0
   -5.3155    1.0025   -1.2770 H   0  0  0  0  0  0  0  0  0  0  0  0
   -0.7289    3.2327   -2.4310 H   0  0  0  0  0  0  0  0  0  0  0  0
    1.8339    1.3595   -0.7652 H   0  0  0  0  0  0  0  0  0  0  0  0
  1 26  1  0  0  0  0
  1  8  2  0  0  0  0
  1  2  1  0  0  0  0
  2  4  2  0  0  0  0
  3  5  1  0  0  0  0
  4  5  1  0  0  0  0
  4  6  1  0  0  0  0
  6 11  1  0  0  0  0
  6  7  2  0  0  0  0
  7  9  1  0  0  0  0
  7  8  1  0  0  0  0
  9 10  2  0  0  0  0
  9 13  1  0  0  0  0
 10 11  1  0  0  0  0
 11 12  1  0  0  0  0
 13 14  1  0  0  0  0
 13 21  1  0  0  0  0
 13 15  1  0  0  0  0
 15 16  1  0  0  0  0
 15 17  1  0  0  0  0
 15 25  1  0  0  0  0
 17 18  1  0  0  0  0
 17 19  1  0  0  0  0
 17 24  1  0  0  0  0
 19 20  1  0  0  0  0
 19 21  1  0  0  0  0
 19 22  1  0  0  0  0
 22 23  1  0  0  0  0
 22 27  1  0  0  0  0
 22 28  1  0  0  0  0
 23 29  1  0  0  0  0
 24 30  1  0  0  0  0
 25 31  1  0  0  0  0
M  END
$$$$
ZINC04617932
  -OEChem-08230709403D

 15 16  0     0  0  0  0  0  0999 V2000
    0.6918    3.0636    0.0119 C   0  0  0  0  0  0  0  0  0  0  0  0
    1.0847    1.7734    0.0012 C   0  0  0  0  0  0  0  0  0  0  0  0
   -0.0111    0.9658    0.0074 N   0  0  0  0  0  0  0  0  0  0  0  0
    0.0021   -0.0041    0.0020 H   0  0  0  0  0  0  0  0  0  0  0  0
   -1.1400    1.7513    0.0164 C   0  0  0  0  0  0  0  0  0  0  0  0
   -0.7192    3.0858    0.0255 C   0  0  0  0  0  0  0  0  0  0  0  0
   -1.6444    4.0749    0.0390 N   0  0  0  0  0  0  0  0  0  0  0  0
   -2.9169    3.8018    0.0491 C   0  0  0  0  0  0  0  0  0  0  0  0
   -3.3818    2.5256    0.0471 N   0  0  0  0  0  0  0  0  0  0  0  0
   -4.3675    2.3571    0.0551 H   0  0  0  0  0  0  0  0  0  0  0  0
   -2.5240    1.4819    0.0344 C   0  0  0  0  0  0  0  0  0  0  0  0
   -2.9369    0.3342    0.0325 O   0  0  0  0  0  0  0  0  0  0  0  0
    1.3415    3.9263    0.0104 H   0  0  0  0  0  0  0  0  0  0  0  0
    2.1099    1.4336   -0.0104 H   0  0  0  0  0  0  0  0  0  0  0  0
   -3.6261    4.6163    0.0597 H   0  0  0  0  0  0  0  0  0  0  0  0
  1  6  1  0  0  0  0
  1  2  2  0  0  0  0
  1 13  1  0  0  0  0
  2  3  1  0  0  0  0
  2 14  1  0  0  0  0
  3  4  1  0  0  0  0
  3  5  1  0  0  0  0
  5 11  1  0  0  0  0
  5  6  2  0  0  0  0
  6  7  1  0  0  0  0
  7  8  2  0  0  0  0
  8  9  1  0  0  0  0
  8 15  1  0  0  0  0
  9 10  1  0  0  0  0
  9 11  1  0  0  0  0
 11 12  2  0  0  0  0
M  END
$$$$
ZINC04617932
  -OEChem-08230709403D

 15 16  0     0  0  0  0  0  0999 V2000
    0.6918    3.0636    0.0119 C   0  0  0  0  0  0  0  0  0  0  0  0
    1.0847    1.7734    0.0012 C   0  0  0  0  0  0  0  0  0  0  0  0
   -0.0111    0.9658    0.0074 N   0  0  0  0  0  0  0  0  0  0  0  0
    0.0021   -0.0041    0.0020 H   0  0  0  0  0  0  0  0  0  0  0  0
   -1.1400    1.7513    0.0164 C   0  0  0  0  0  0  0  0  0  0  0  0
   -0.7192    3.0858    0.0255 C   0  0  0  0  0  0  0  0  0  0  0  0
   -1.6444    4.0750    0.0234 N   0  0  0  0  0  0  0  0  0  0  0  0
   -2.9169    3.8020    0.0185 C   0  0  0  0  0  0  0  0  0  0  0  0
   -3.3819    2.5259    0.0157 N   0  0  0  0  0  0  0  0  0  0  0  0
   -1.3453    5.0292    0.0256 H   0  0  0  0  0  0  0  0  0  0  0  0
   -2.5241    1.4821    0.0180 C   0  0  0  0  0  0  0  0  0  0  0  0
   -2.9371    0.3344    0.0155 O   0  0  0  0  0  0  0  0  0  0  0  0
    1.3415    3.9263    0.0104 H   0  0  0  0  0  0  0  0  0  0  0  0
    2.1099    1.4336   -0.0104 H   0  0  0  0  0  0  0  0  0  0  0  0
   -3.6261    4.6166    0.0166 H   0  0  0  0  0  0  0  0  0  0  0  0
  1  6  1  0  0  0  0
  1  2  2  0  0  0  0
  1 13  1  0  0  0  0
  2  3  1  0  0  0  0
  2 14  1  0  0  0  0
  3  4  1  0  0  0  0
  3  5  1  0  0  0  0
  5 11  1  0  0  0  0
  5  6  2  0  0  0  0
  6  7  1  0  0  0  0
  7 10  1  0  0  0  0
  7  8  1  0  0  0  0
  8 15  1  0  0  0  0
  8  9  2  0  0  0  0
  9 11  1  0  0  0  0
 11 12  2  0  0  0  0
M  END
$$$$
