ZINC01482422
  -OEChem-08230709403D

 47 50  0     1  0  0  0  0  0999 V2000
   -1.1837   -2.9614    2.4115 C   0  0  0  0  0  0  0  0  0  0  0  0
   -0.3811   -2.5896    1.2437 N   0  0  0  0  0  0  0  0  0  0  0  0
   -1.0412   -2.1840    0.0003 C   0  0  0  0  0  0  0  0  0  0  0  0
   -1.2622   -0.6701    0.0105 C   0  0  0  0  0  0  0  0  0  0  0  0
    0.0021   -0.0041    0.0020 O   0  0  0  0  0  0  0  0  0  0  0  0
   -0.0164    1.3548    0.0095 C   0  0  0  0  0  0  0  0  0  0  0  0
   -1.2264    2.0332    0.0189 C   0  0  0  0  0  0  0  0  0  0  0  0
   -1.2424    3.4145    0.0313 C   0  0  0  0  0  0  0  0  0  0  0  0
   -0.0539    4.1209    0.0237 C   0  0  0  0  0  0  0  0  0  0  0  0
    1.1534    3.4471    0.0091 C   0  0  0  0  0  0  0  0  0  0  0  0
    1.1748    2.0659    0.0019 C   0  0  0  0  0  0  0  0  0  0  0  0
   -0.0743    5.6278    0.0320 C   0  0  0  0  0  0  0  0  0  0  0  0
   -0.0944    6.1454   -1.4076 C   0  0  1  0  0  0  0  0  0  0  0  0
   -0.8749    5.6565   -1.9906 H   0  0  0  0  0  0  0  0  0  0  0  0
   -0.2390    7.6600   -1.4493 C   0  0  0  0  0  0  0  0  0  0  0  0
   -1.2149    8.2301   -1.0106 O   0  0  0  0  0  0  0  0  0  0  0  0
    0.7730    8.3112   -1.9974 N   0  0  0  0  0  0  0  0  0  0  0  0
    1.8657    7.6997   -2.4911 C   0  0  0  0  0  0  0  0  0  0  0  0
    2.8399    8.2092   -3.0100 O   0  0  0  0  0  0  0  0  0  0  0  0
    1.5504    5.9643   -2.2059 S   0  0  0  0  0  0  0  0  0  0  0  0
    0.9932   -2.6213    1.3147 C   0  0  0  0  0  0  0  0  0  0  0  0
    1.6816   -2.9671    2.3724 N   0  0  0  0  0  0  0  0  0  0  0  0
    3.0078   -2.8812    2.0773 C   0  0  0  0  0  0  0  0  0  0  0  0
    4.1744   -3.1236    2.8038 C   0  0  0  0  0  0  0  0  0  0  0  0
    5.4021   -2.9395    2.2064 C   0  0  0  0  0  0  0  0  0  0  0  0
    5.4845   -2.5158    0.8889 C   0  0  0  0  0  0  0  0  0  0  0  0
    4.3384   -2.2721    0.1593 C   0  0  0  0  0  0  0  0  0  0  0  0
    3.0958   -2.4521    0.7446 C   0  0  0  0  0  0  0  0  0  0  0  0
    1.8243   -2.3070    0.3055 O   0  0  0  0  0  0  0  0  0  0  0  0
   -1.3890   -4.0316    2.3855 H   0  0  0  0  0  0  0  0  0  0  0  0
   -0.6351   -2.7187    3.3216 H   0  0  0  0  0  0  0  0  0  0  0  0
   -2.1242   -2.4106    2.3964 H   0  0  0  0  0  0  0  0  0  0  0  0
   -2.0025   -2.6910   -0.0828 H   0  0  0  0  0  0  0  0  0  0  0  0
   -0.4135   -2.4538   -0.8490 H   0  0  0  0  0  0  0  0  0  0  0  0
   -1.8146   -0.3896    0.9073 H   0  0  0  0  0  0  0  0  0  0  0  0
   -1.8316   -0.3800   -0.8725 H   0  0  0  0  0  0  0  0  0  0  0  0
   -2.1551    1.4819    0.0203 H   0  0  0  0  0  0  0  0  0  0  0  0
   -2.1842    3.9431    0.0428 H   0  0  0  0  0  0  0  0  0  0  0  0
    2.0805    4.0012    0.0036 H   0  0  0  0  0  0  0  0  0  0  0  0
    2.1181    1.5401   -0.0099 H   0  0  0  0  0  0  0  0  0  0  0  0
   -0.9644    5.9762    0.5559 H   0  0  0  0  0  0  0  0  0  0  0  0
    0.8153    6.0004    0.5397 H   0  0  0  0  0  0  0  0  0  0  0  0
    0.7254    9.2788   -2.0465 H   0  0  0  0  0  0  0  0  0  0  0  0
    4.1150   -3.4544    3.8302 H   0  0  0  0  0  0  0  0  0  0  0  0
    6.3056   -3.1267    2.7676 H   0  0  0  0  0  0  0  0  0  0  0  0
    6.4521   -2.3751    0.4304 H   0  0  0  0  0  0  0  0  0  0  0  0
    4.4103   -1.9419   -0.8665 H   0  0  0  0  0  0  0  0  0  0  0  0
  1  2  1  0  0  0  0
  1 30  1  0  0  0  0
  1 31  1  0  0  0  0
  1 32  1  0  0  0  0
  2  3  1  0  0  0  0
  2 21  1  0  0  0  0
  3  4  1  0  0  0  0
  3 33  1  0  0  0  0
  3 34  1  0  0  0  0
  4  5  1  0  0  0  0
  4 35  1  0  0  0  0
  4 36  1  0  0  0  0
  5  6  1  0  0  0  0
  6 11  2  0  0  0  0
  6  7  1  0  0  0  0
  7  8  2  0  0  0  0
  7 37  1  0  0  0  0
  8  9  1  0  0  0  0
  8 38  1  0  0  0  0
  9 10  2  0  0  0  0
  9 12  1  0  0  0  0
 10 11  1  0  0  0  0
 10 39  1  0  0  0  0
 11 40  1  0  0  0  0
 12 13  1  0  0  0  0
 12 41  1  0  0  0  0
 12 42  1  0  0  0  0
 13 14  1  0  0  0  0
 13 20  1  0  0  0  0
 13 15  1  0  0  0  0
 15 16  2  0  0  0  0
 15 17  1  0  0  0  0
 17 18  1  0  0  0  0
 17 43  1  0  0  0  0
 18 19  2  0  0  0  0
 18 20  1  0  0  0  0
 21 29  1  0  0  0  0
 21 22  2  0  0  0  0
 22 23  1  0  0  0  0
 23 28  2  0  0  0  0
 23 24  1  0  0  0  0
 24 25  2  0  0  0  0
 24 44  1  0  0  0  0
 25 26  1  0  0  0  0
 25 45  1  0  0  0  0
 26 27  2  0  0  0  0
 26 46  1  0  0  0  0
 27 28  1  0  0  0  0
 27 47  1  0  0  0  0
 28 29  1  0  0  0  0
M  END
$$$$
ZINC01554391
  -OEChem-08230709403D

 60 63  0     0  0  0  0  0  0999 V2000
    8.4934   -4.8040    1.3326 C   0  0  0  0  0  0  0  0  0  0  0  0
    7.0816   -5.3934    1.3435 C   0  0  0  0  0  0  0  0  0  0  0  0
    6.5965   -5.5821   -0.0952 C   0  0  0  0  0  0  0  0  0  0  0  0
    5.2059   -6.1627   -0.0845 C   0  0  0  0  0  0  0  0  0  0  0  0
    4.1057   -5.3244   -0.0689 C   0  0  0  0  0  0  0  0  0  0  0  0
    2.8170   -5.8492   -0.0536 C   0  0  0  0  0  0  0  0  0  0  0  0
    2.6245   -7.2130   -0.0653 C   0  0  0  0  0  0  0  0  0  0  0  0
    3.7255   -8.0648   -0.0809 C   0  0  0  0  0  0  0  0  0  0  0  0
    5.0275   -7.5399   -0.0906 C   0  0  0  0  0  0  0  0  0  0  0  0
    5.8848   -8.5811   -0.1054 O   0  0  0  0  0  0  0  0  0  0  0  0
    5.2256   -9.7520   -0.1060 C   0  0  0  0  0  0  0  0  0  0  0  0
    3.8915   -9.5303   -0.0914 C   0  0  0  0  0  0  0  0  0  0  0  0
    2.8163  -10.5511   -0.0870 C   0  0  0  0  0  0  0  0  0  0  0  0
    1.7876  -10.4797    0.8511 C   0  0  0  0  0  0  0  0  0  0  0  0
    0.7869  -11.4299    0.8474 C   0  0  0  0  0  0  0  0  0  0  0  0
    0.8090  -12.4579   -0.0780 C   0  0  0  0  0  0  0  0  0  0  0  0
    1.8301  -12.5369   -1.0079 C   0  0  0  0  0  0  0  0  0  0  0  0
    2.8333  -11.5893   -1.0171 C   0  0  0  0  0  0  0  0  0  0  0  0
    4.2849   -3.9770   -0.0630 O   0  0  0  0  0  0  0  0  0  0  0  0
    3.1084   -3.1661   -0.0468 C   0  0  0  0  0  0  0  0  0  0  0  0
    3.5071   -1.6890   -0.0423 C   0  0  0  0  0  0  0  0  0  0  0  0
    2.2474   -0.8207   -0.0250 C   0  0  0  0  0  0  0  0  0  0  0  0
    2.7201    0.9306   -0.0196 S   0  0  0  0  0  0  0  0  0  0  0  0
    1.1807    1.7876    0.0004 C   0  0  0  0  0  0  0  0  0  0  0  0
   -0.0126    1.0758    0.0080 C   0  0  0  0  0  0  0  0  0  0  0  0
   -1.2173    1.7507    0.0173 C   0  0  0  0  0  0  0  0  0  0  0  0
   -1.2376    3.1336    0.0308 C   0  0  0  0  0  0  0  0  0  0  0  0
   -0.0525    3.8461    0.0233 C   0  0  0  0  0  0  0  0  0  0  0  0
    1.1570    3.1778    0.0081 C   0  0  0  0  0  0  0  0  0  0  0  0
    2.6446    4.0727   -0.0018 Cl  0  0  0  0  0  0  0  0  0  0  0  0
   -2.5547    3.8658    0.0479 C   0  0  0  0  0  0  0  0  0  0  0  0
   -3.0076    4.1180   -1.3672 C   0  0  0  0  0  0  0  0  0  0  0  0
   -2.3304    3.7418   -2.2944 O   0  0  0  0  0  0  0  0  0  0  0  0
    8.4808   -3.8400    0.8241 H   0  0  0  0  0  0  0  0  0  0  0  0
    8.8390   -4.6696    2.3576 H   0  0  0  0  0  0  0  0  0  0  0  0
    9.1664   -5.4825    0.8083 H   0  0  0  0  0  0  0  0  0  0  0  0
    6.4086   -4.7149    1.8678 H   0  0  0  0  0  0  0  0  0  0  0  0
    7.0942   -6.3575    1.8520 H   0  0  0  0  0  0  0  0  0  0  0  0
    7.2695   -6.2606   -0.6195 H   0  0  0  0  0  0  0  0  0  0  0  0
    6.5839   -4.6181   -0.6037 H   0  0  0  0  0  0  0  0  0  0  0  0
    1.9653   -5.1852   -0.0371 H   0  0  0  0  0  0  0  0  0  0  0  0
    1.6240   -7.6198   -0.0575 H   0  0  0  0  0  0  0  0  0  0  0  0
    5.6920  -10.7260   -0.1159 H   0  0  0  0  0  0  0  0  0  0  0  0
    1.7717   -9.6800    1.5769 H   0  0  0  0  0  0  0  0  0  0  0  0
   -0.0128  -11.3733    1.5710 H   0  0  0  0  0  0  0  0  0  0  0  0
    0.0258  -13.2016   -0.0748 H   0  0  0  0  0  0  0  0  0  0  0  0
    1.8421  -13.3415   -1.7282 H   0  0  0  0  0  0  0  0  0  0  0  0
    3.6299  -11.6517   -1.7438 H   0  0  0  0  0  0  0  0  0  0  0  0
    2.5263   -3.3881    0.8476 H   0  0  0  0  0  0  0  0  0  0  0  0
    2.5090   -3.3779   -0.9322 H   0  0  0  0  0  0  0  0  0  0  0  0
    4.0891   -1.4670   -0.9367 H   0  0  0  0  0  0  0  0  0  0  0  0
    4.1065   -1.4772    0.8431 H   0  0  0  0  0  0  0  0  0  0  0  0
    1.6654   -1.0427    0.8695 H   0  0  0  0  0  0  0  0  0  0  0  0
    1.6480   -1.0325   -0.9104 H   0  0  0  0  0  0  0  0  0  0  0  0
    0.0021   -0.0041    0.0020 H   0  0  0  0  0  0  0  0  0  0  0  0
   -2.1451    1.1978    0.0187 H   0  0  0  0  0  0  0  0  0  0  0  0
   -0.0721    4.9259    0.0290 H   0  0  0  0  0  0  0  0  0  0  0  0
   -3.2997    3.2615    0.5655 H   0  0  0  0  0  0  0  0  0  0  0  0
   -2.4348    4.8172    0.5660 H   0  0  0  0  0  0  0  0  0  0  0  0
   -4.1633    4.7606   -1.5975 O   0  5  0  0  0  0  0  0  0  0  0  0
  1  2  1  0  0  0  0
  1 34  1  0  0  0  0
  1 35  1  0  0  0  0
  1 36  1  0  0  0  0
  2  3  1  0  0  0  0
  2 37  1  0  0  0  0
  2 38  1  0  0  0  0
  3  4  1  0  0  0  0
  3 39  1  0  0  0  0
  3 40  1  0  0  0  0
  4  9  2  0  0  0  0
  4  5  1  0  0  0  0
  5  6  2  0  0  0  0
  5 19  1  0  0  0  0
  6  7  1  0  0  0  0
  6 41  1  0  0  0  0
  7  8  2  0  0  0  0
  7 42  1  0  0  0  0
  8 12  1  0  0  0  0
  8  9  1  0  0  0  0
  9 10  1  0  0  0  0
 10 11  1  0  0  0  0
 11 12  2  0  0  0  0
 11 43  1  0  0  0  0
 12 13  1  0  0  0  0
 13 18  2  0  0  0  0
 13 14  1  0  0  0  0
 14 15  2  0  0  0  0
 14 44  1  0  0  0  0
 15 16  1  0  0  0  0
 15 45  1  0  0  0  0
 16 17  2  0  0  0  0
 16 46  1  0  0  0  0
 17 18  1  0  0  0  0
 17 47  1  0  0  0  0
 18 48  1  0  0  0  0
 19 20  1  0  0  0  0
 20 21  1  0  0  0  0
 20 49  1  0  0  0  0
 20 50  1  0  0  0  0
 21 22  1  0  0  0  0
 21 51  1  0  0  0  0
 21 52  1  0  0  0  0
 22 23  1  0  0  0  0
 22 53  1  0  0  0  0
 22 54  1  0  0  0  0
 23 24  1  0  0  0  0
 24 29  2  0  0  0  0
 24 25  1  0  0  0  0
 25 26  2  0  0  0  0
 25 55  1  0  0  0  0
 26 27  1  0  0  0  0
 26 56  1  0  0  0  0
 27 28  2  0  0  0  0
 27 31  1  0  0  0  0
 28 29  1  0  0  0  0
 28 57  1  0  0  0  0
 29 30  1  0  0  0  0
 31 32  1  0  0  0  0
 31 58  1  0  0  0  0
 31 59  1  0  0  0  0
 32 33  2  0  0  0  0
 32 60  1  0  0  0  0
M  CHG  1  60  -1
M  END
$$$$
ZINC03606204
  -OEChem-08230709403D

 45 47  0     1  0  0  0  0  0999 V2000
   -2.4872   12.0425    1.9927 C   0  0  0  0  0  0  0  0  0  0  0  0
   -1.1679   11.8607    2.6031 N   0  0  3  0  0  0  0  0  0  0  0  0
   -0.0556   11.3427    1.8026 C   0  0  0  0  0  0  0  0  0  0  0  0
   -0.0267    9.8159    1.8974 C   0  0  0  0  0  0  0  0  0  0  0  0
   -1.2069    9.2790    1.2968 O   0  0  0  0  0  0  0  0  0  0  0  0
   -1.3386    7.9264    1.2970 C   0  0  0  0  0  0  0  0  0  0  0  0
   -2.4597    7.3373    0.7306 C   0  0  0  0  0  0  0  0  0  0  0  0
   -2.5915    5.9622    0.7324 C   0  0  0  0  0  0  0  0  0  0  0  0
   -1.6074    5.1730    1.2986 C   0  0  0  0  0  0  0  0  0  0  0  0
   -0.4918    5.7579    1.8688 C   0  0  0  0  0  0  0  0  0  0  0  0
   -0.3525    7.1323    1.8640 C   0  0  0  0  0  0  0  0  0  0  0  0
   -1.7540    3.6732    1.2997 C   0  0  0  0  0  0  0  0  0  0  0  0
   -1.1258    3.0984    0.0285 C   0  0  2  0  0  0  0  0  0  0  0  0
   -1.5903    3.5177   -0.8640 H   0  0  0  0  0  0  0  0  0  0  0  0
   -1.1835    1.5775    0.0164 C   0  0  0  0  0  0  0  0  0  0  0  0
   -2.2319    0.9688    0.0183 O   0  0  0  0  0  0  0  0  0  0  0  0
   -0.0111    0.9658    0.0074 N   0  0  0  0  0  0  0  0  0  0  0  0
    1.1648    1.6207   -0.0004 C   0  0  0  0  0  0  0  0  0  0  0  0
    2.2854    1.1492   -0.0136 O   0  0  0  0  0  0  0  0  0  0  0  0
    0.6948    3.3444    0.0127 S   0  0  0  0  0  0  0  0  0  0  0  0
   -0.9714   12.1797    3.9416 C   0  0  0  0  0  0  0  0  0  0  0  0
    0.3049   12.0988    4.4896 C   0  0  0  0  0  0  0  0  0  0  0  0
    0.4870   12.4249    5.8212 C   0  0  0  0  0  0  0  0  0  0  0  0
   -0.6195   12.8114    6.5663 C   0  0  0  0  0  0  0  0  0  0  0  0
   -1.8581   12.8639    5.9597 C   0  0  0  0  0  0  0  0  0  0  0  0
   -3.0697   11.1284    2.1074 H   0  0  0  0  0  0  0  0  0  0  0  0
   -3.0043   12.8669    2.4839 H   0  0  0  0  0  0  0  0  0  0  0  0
   -2.3693   12.2676    0.9327 H   0  0  0  0  0  0  0  0  0  0  0  0
    0.8833   11.7480    2.1800 H   0  0  0  0  0  0  0  0  0  0  0  0
   -0.1875   11.6397    0.7622 H   0  0  0  0  0  0  0  0  0  0  0  0
    0.0158    9.5177    2.9450 H   0  0  0  0  0  0  0  0  0  0  0  0
    0.8516    9.4361    1.3756 H   0  0  0  0  0  0  0  0  0  0  0  0
   -3.2287    7.9533    0.2882 H   0  0  0  0  0  0  0  0  0  0  0  0
   -3.4641    5.5032    0.2916 H   0  0  0  0  0  0  0  0  0  0  0  0
    0.2732    5.1395    2.3147 H   0  0  0  0  0  0  0  0  0  0  0  0
    0.5214    7.5884    2.3053 H   0  0  0  0  0  0  0  0  0  0  0  0
   -2.8116    3.4115    1.3327 H   0  0  0  0  0  0  0  0  0  0  0  0
   -1.2499    3.2595    2.1731 H   0  0  0  0  0  0  0  0  0  0  0  0
    0.0021   -0.0041    0.0020 H   0  0  0  0  0  0  0  0  0  0  0  0
    1.1428   11.7897    3.8822 H   0  0  0  0  0  0  0  0  0  0  0  0
    1.4669   12.3755    6.2728 H   0  0  0  0  0  0  0  0  0  0  0  0
   -0.5117   13.0686    7.6097 H   0  0  0  0  0  0  0  0  0  0  0  0
   -2.7212   13.1640    6.5354 H   0  0  0  0  0  0  0  0  0  0  0  0
   -2.0732   12.5564    4.6525 N   0  3  0  0  0  0  0  0  0  0  0  0
   -3.0065   12.6048    4.2272 H   0  0  0  0  0  0  0  0  0  0  0  0
  1  2  1  0  0  0  0
  1 26  1  0  0  0  0
  1 27  1  0  0  0  0
  1 28  1  0  0  0  0
  2  3  1  0  0  0  0
  2 21  1  0  0  0  0
  3  4  1  0  0  0  0
  3 29  1  0  0  0  0
  3 30  1  0  0  0  0
  4  5  1  0  0  0  0
  4 31  1  0  0  0  0
  4 32  1  0  0  0  0
  5  6  1  0  0  0  0
  6 11  2  0  0  0  0
  6  7  1  0  0  0  0
  7  8  2  0  0  0  0
  7 33  1  0  0  0  0
  8  9  1  0  0  0  0
  8 34  1  0  0  0  0
  9 10  2  0  0  0  0
  9 12  1  0  0  0  0
 10 11  1  0  0  0  0
 10 35  1  0  0  0  0
 11 36  1  0  0  0  0
 12 13  1  0  0  0  0
 12 37  1  0  0  0  0
 12 38  1  0  0  0  0
 13 14  1  0  0  0  0
 13 20  1  0  0  0  0
 13 15  1  0  0  0  0
 15 16  2  0  0  0  0
 15 17  1  0  0  0  0
 17 18  1  0  0  0  0
 17 39  1  0  0  0  0
 18 19  2  0  0  0  0
 18 20  1  0  0  0  0
 21 22  2  0  0  0  0
 21 44  1  0  0  0  0
 22 23  1  0  0  0  0
 22 40  1  0  0  0  0
 23 24  2  0  0  0  0
 23 41  1  0  0  0  0
 24 25  1  0  0  0  0
 24 42  1  0  0  0  0
 25 43  1  0  0  0  0
 25 44  2  0  0  0  0
 44 45  1  0  0  0  0
M  CHG  1  44   1
M  END
$$$$
ZINC03806787
  -OEChem-08230709403D

 49 52  0     1  0  0  0  0  0999 V2000
   -2.6093   10.3224    2.8327 C   0  0  0  0  0  0  0  0  0  0  0  0
   -3.6275   10.5353    1.7423 C   0  0  0  0  0  0  0  0  0  0  0  0
   -3.4587   10.2795    0.4322 C   0  0  0  0  0  0  0  0  0  0  0  0
   -4.5949   10.6089   -0.2006 N   0  0  0  0  0  0  0  0  0  0  0  0
   -5.4558   11.0508    0.6856 C   0  0  0  0  0  0  0  0  0  0  0  0
   -4.8765   11.0173    1.8982 O   0  0  0  0  0  0  0  0  0  0  0  0
   -6.8300   11.5137    0.3981 C   0  0  0  0  0  0  0  0  0  0  0  0
   -7.3130   11.5044   -0.9113 C   0  0  0  0  0  0  0  0  0  0  0  0
   -8.5983   11.9328   -1.1722 C   0  0  0  0  0  0  0  0  0  0  0  0
   -9.4038   12.3817   -0.1408 C   0  0  0  0  0  0  0  0  0  0  0  0
   -8.9292   12.3985    1.1587 C   0  0  0  0  0  0  0  0  0  0  0  0
   -7.6479   11.9674    1.4339 C   0  0  0  0  0  0  0  0  0  0  0  0
   -2.2127    9.7274   -0.2109 C   0  0  0  0  0  0  0  0  0  0  0  0
   -2.2829    8.1992   -0.2301 C   0  0  0  0  0  0  0  0  0  0  0  0
   -1.1014    7.6756   -0.8399 O   0  0  0  0  0  0  0  0  0  0  0  0
   -1.0042    6.3235   -0.9365 C   0  0  0  0  0  0  0  0  0  0  0  0
    0.1161    5.7472   -1.5175 C   0  0  0  0  0  0  0  0  0  0  0  0
    0.2123    4.3726   -1.6150 C   0  0  0  0  0  0  0  0  0  0  0  0
   -0.8070    3.5713   -1.1345 C   0  0  0  0  0  0  0  0  0  0  0  0
   -1.9270    4.1434   -0.5601 C   0  0  0  0  0  0  0  0  0  0  0  0
   -2.0253    5.5173   -0.4548 C   0  0  0  0  0  0  0  0  0  0  0  0
   -0.6996    2.0720   -1.2426 C   0  0  0  0  0  0  0  0  0  0  0  0
   -0.0186    1.5178    0.0104 C   0  0  1  0  0  0  0  0  0  0  0  0
   -0.4866    1.9029    0.9163 H   0  0  0  0  0  0  0  0  0  0  0  0
    0.0021   -0.0041    0.0020 C   0  0  0  0  0  0  0  0  0  0  0  0
   -1.0137   -0.6659    0.0085 O   0  0  0  0  0  0  0  0  0  0  0  0
    1.2043   -0.5547   -0.0124 N   0  0  0  0  0  0  0  0  0  0  0  0
    2.3450    0.1598   -0.0195 C   0  0  0  0  0  0  0  0  0  0  0  0
    3.4883   -0.2534   -0.0326 O   0  0  0  0  0  0  0  0  0  0  0  0
    1.7870    1.8570   -0.0050 S   0  0  0  0  0  0  0  0  0  0  0  0
   -2.0128   11.2266    2.9543 H   0  0  0  0  0  0  0  0  0  0  0  0
   -3.1208   10.0961    3.7682 H   0  0  0  0  0  0  0  0  0  0  0  0
   -1.9580    9.4907    2.5642 H   0  0  0  0  0  0  0  0  0  0  0  0
   -6.6836   11.1587   -1.7180 H   0  0  0  0  0  0  0  0  0  0  0  0
   -8.9747   11.9222   -2.1844 H   0  0  0  0  0  0  0  0  0  0  0  0
  -10.4076   12.7202   -0.3510 H   0  0  0  0  0  0  0  0  0  0  0  0
   -9.5633   12.7495    1.9594 H   0  0  0  0  0  0  0  0  0  0  0  0
   -7.2787   11.9807    2.4488 H   0  0  0  0  0  0  0  0  0  0  0  0
   -1.3390   10.0439    0.3588 H   0  0  0  0  0  0  0  0  0  0  0  0
   -2.1351   10.1004   -1.2322 H   0  0  0  0  0  0  0  0  0  0  0  0
   -3.1566    7.8827   -0.7998 H   0  0  0  0  0  0  0  0  0  0  0  0
   -2.3605    7.8262    0.7912 H   0  0  0  0  0  0  0  0  0  0  0  0
    0.9121    6.3727   -1.8936 H   0  0  0  0  0  0  0  0  0  0  0  0
    1.0841    3.9234   -2.0672 H   0  0  0  0  0  0  0  0  0  0  0  0
   -2.7239    3.5155   -0.1899 H   0  0  0  0  0  0  0  0  0  0  0  0
   -2.8985    5.9636   -0.0024 H   0  0  0  0  0  0  0  0  0  0  0  0
   -0.1098    1.8124   -2.1217 H   0  0  0  0  0  0  0  0  0  0  0  0
   -1.6970    1.6420   -1.3343 H   0  0  0  0  0  0  0  0  0  0  0  0
    1.2673   -1.5226   -0.0179 H   0  0  0  0  0  0  0  0  0  0  0  0
  1  2  1  0  0  0  0
  1 31  1  0  0  0  0
  1 32  1  0  0  0  0
  1 33  1  0  0  0  0
  2  6  1  0  0  0  0
  2  3  2  0  0  0  0
  3  4  1  0  0  0  0
  3 13  1  0  0  0  0
  4  5  2  0  0  0  0
  5  6  1  0  0  0  0
  5  7  1  0  0  0  0
  7 12  2  0  0  0  0
  7  8  1  0  0  0  0
  8  9  2  0  0  0  0
  8 34  1  0  0  0  0
  9 10  1  0  0  0  0
  9 35  1  0  0  0  0
 10 11  2  0  0  0  0
 10 36  1  0  0  0  0
 11 12  1  0  0  0  0
 11 37  1  0  0  0  0
 12 38  1  0  0  0  0
 13 14  1  0  0  0  0
 13 39  1  0  0  0  0
 13 40  1  0  0  0  0
 14 15  1  0  0  0  0
 14 41  1  0  0  0  0
 14 42  1  0  0  0  0
 15 16  1  0  0  0  0
 16 21  2  0  0  0  0
 16 17  1  0  0  0  0
 17 18  2  0  0  0  0
 17 43  1  0  0  0  0
 18 19  1  0  0  0  0
 18 44  1  0  0  0  0
 19 20  2  0  0  0  0
 19 22  1  0  0  0  0
 20 21  1  0  0  0  0
 20 45  1  0  0  0  0
 21 46  1  0  0  0  0
 22 23  1  0  0  0  0
 22 47  1  0  0  0  0
 22 48  1  0  0  0  0
 23 24  1  0  0  0  0
 23 30  1  0  0  0  0
 23 25  1  0  0  0  0
 25 26  2  0  0  0  0
 25 27  1  0  0  0  0
 27 28  1  0  0  0  0
 27 49  1  0  0  0  0
 28 29  2  0  0  0  0
 28 30  1  0  0  0  0
M  END
$$$$
ZINC03815809
  -OEChem-08230709403D

 71 75  0     1  0  0  0  0  0999 V2000
    5.1447    4.1093    8.3192 C   0  0  0  0  0  0  0  0  0  0  0  0
    3.7325    3.7537    8.4786 N   0  0  0  0  0  0  0  0  0  0  0  0
    2.7447    4.5627    8.9667 C   0  0  0  0  0  0  0  0  0  0  0  0
    1.5980    3.8343    8.9459 C   0  0  0  0  0  0  0  0  0  0  0  0
    1.8950    2.6161    8.4494 N   0  0  0  0  0  0  0  0  0  0  0  0
    3.1665    2.5670    8.1669 C   0  0  0  0  0  0  0  0  0  0  0  0
    3.8899    1.3767    7.5916 C   0  0  0  0  0  0  0  0  0  0  0  0
    3.8574    1.4498    6.0637 C   0  0  0  0  0  0  0  0  0  0  0  0
    4.5434    0.3211    5.5181 O   0  0  0  0  0  0  0  0  0  0  0  0
    4.6067    0.2333    4.1635 C   0  0  0  0  0  0  0  0  0  0  0  0
    5.2575   -0.8365    3.5662 C   0  0  0  0  0  0  0  0  0  0  0  0
    5.3201   -0.9238    2.1890 C   0  0  0  0  0  0  0  0  0  0  0  0
    4.7350    0.0540    1.4058 C   0  0  0  0  0  0  0  0  0  0  0  0
    4.0907    1.1241    1.9987 C   0  0  0  0  0  0  0  0  0  0  0  0
    4.0204    1.2130    3.3755 C   0  0  0  0  0  0  0  0  0  0  0  0
    4.8048   -0.0437   -0.0964 C   0  0  0  0  0  0  0  0  0  0  0  0
    3.5939   -0.8227   -0.6137 C   0  0  2  0  0  0  0  0  0  0  0  0
    3.5460   -1.7918   -0.1169 H   0  0  0  0  0  0  0  0  0  0  0  0
    3.7257   -1.0267   -2.1010 C   0  0  0  0  0  0  0  0  0  0  0  0
    2.8842   -0.5868   -2.8480 O   0  0  0  0  0  0  0  0  0  0  0  0
    2.3705   -0.0681   -0.3308 N   0  0  0  0  0  0  0  0  0  0  0  0
    1.1571   -0.7318   -0.2130 C   0  0  0  0  0  0  0  0  0  0  0  0
    1.0782   -2.0947   -0.4725 C   0  0  0  0  0  0  0  0  0  0  0  0
   -0.1300   -2.7509   -0.3603 C   0  0  0  0  0  0  0  0  0  0  0  0
   -1.2721   -2.0608    0.0168 C   0  0  0  0  0  0  0  0  0  0  0  0
   -1.2138   -0.7112    0.2833 C   0  0  0  0  0  0  0  0  0  0  0  0
    0.0031   -0.0306    0.1743 C   0  0  0  0  0  0  0  0  0  0  0  0
    0.0731    1.4132    0.4580 C   0  0  0  0  0  0  0  0  0  0  0  0
    0.0489    1.8089    1.6076 O   0  0  0  0  0  0  0  0  0  0  0  0
    0.1787    2.3807   -0.6545 C   0  0  0  0  0  0  0  0  0  0  0  0
    0.1643    1.9329   -1.9771 C   0  0  0  0  0  0  0  0  0  0  0  0
    0.2589    2.8416   -3.0105 C   0  0  0  0  0  0  0  0  0  0  0  0
    0.3777    4.1933   -2.7388 C   0  0  0  0  0  0  0  0  0  0  0  0
    0.3979    4.6434   -1.4304 C   0  0  0  0  0  0  0  0  0  0  0  0
    0.2992    3.7461   -0.3875 C   0  0  0  0  0  0  0  0  0  0  0  0
    0.2595    4.2963    9.3891 C   0  0  0  0  0  0  0  0  0  0  0  0
    0.0953    5.5865    9.8893 C   0  0  0  0  0  0  0  0  0  0  0  0
   -1.1529    6.0124   10.2962 C   0  0  0  0  0  0  0  0  0  0  0  0
   -2.2377    5.1578   10.2175 C   0  0  0  0  0  0  0  0  0  0  0  0
   -2.0795    3.8745    9.7262 C   0  0  0  0  0  0  0  0  0  0  0  0
   -0.8369    3.4396    9.3121 C   0  0  0  0  0  0  0  0  0  0  0  0
    5.3016    4.5391    7.3299 H   0  0  0  0  0  0  0  0  0  0  0  0
    5.4241    4.8378    9.0803 H   0  0  0  0  0  0  0  0  0  0  0  0
    5.7590    3.2156    8.4286 H   0  0  0  0  0  0  0  0  0  0  0  0
    2.8553    5.5815    9.3076 H   0  0  0  0  0  0  0  0  0  0  0  0
    3.4013    0.4601    7.9220 H   0  0  0  0  0  0  0  0  0  0  0  0
    4.9249    1.3804    7.9336 H   0  0  0  0  0  0  0  0  0  0  0  0
    4.3460    2.3664    5.7333 H   0  0  0  0  0  0  0  0  0  0  0  0
    2.8225    1.4461    5.7217 H   0  0  0  0  0  0  0  0  0  0  0  0
    5.7144   -1.6007    4.1775 H   0  0  0  0  0  0  0  0  0  0  0  0
    5.8263   -1.7566    1.7235 H   0  0  0  0  0  0  0  0  0  0  0  0
    3.6385    1.8891    1.3848 H   0  0  0  0  0  0  0  0  0  0  0  0
    3.5132    2.0468    3.8380 H   0  0  0  0  0  0  0  0  0  0  0  0
    5.7199   -0.5610   -0.3847 H   0  0  0  0  0  0  0  0  0  0  0  0
    4.8029    0.9581   -0.5261 H   0  0  0  0  0  0  0  0  0  0  0  0
    2.4084    0.8955   -0.2258 H   0  0  0  0  0  0  0  0  0  0  0  0
    1.9629   -2.6398   -0.7667 H   0  0  0  0  0  0  0  0  0  0  0  0
   -0.1867   -3.8094   -0.5671 H   0  0  0  0  0  0  0  0  0  0  0  0
   -2.2127   -2.5848    0.1014 H   0  0  0  0  0  0  0  0  0  0  0  0
   -2.1066   -0.1790    0.5765 H   0  0  0  0  0  0  0  0  0  0  0  0
    0.0758    0.8779   -2.1905 H   0  0  0  0  0  0  0  0  0  0  0  0
    0.2441    2.4971   -4.0340 H   0  0  0  0  0  0  0  0  0  0  0  0
    0.4552    4.9002   -3.5517 H   0  0  0  0  0  0  0  0  0  0  0  0
    0.4908    5.6997   -1.2254 H   0  0  0  0  0  0  0  0  0  0  0  0
    0.3155    4.0986    0.6332 H   0  0  0  0  0  0  0  0  0  0  0  0
    0.9425    6.2531    9.9554 H   0  0  0  0  0  0  0  0  0  0  0  0
   -1.2820    7.0134   10.6805 H   0  0  0  0  0  0  0  0  0  0  0  0
   -3.2119    5.4940   10.5405 H   0  0  0  0  0  0  0  0  0  0  0  0
   -2.9300    3.2114    9.6670 H   0  0  0  0  0  0  0  0  0  0  0  0
   -0.7145    2.4374    8.9287 H   0  0  0  0  0  0  0  0  0  0  0  0
    4.7781   -1.6971   -2.5958 O   0  5  0  0  0  0  0  0  0  0  0  0
  1  2  1  0  0  0  0
  1 42  1  0  0  0  0
  1 43  1  0  0  0  0
  1 44  1  0  0  0  0
  2  6  1  0  0  0  0
  2  3  1  0  0  0  0
  3  4  2  0  0  0  0
  3 45  1  0  0  0  0
  4  5  1  0  0  0  0
  4 36  1  0  0  0  0
  5  6  2  0  0  0  0
  6  7  1  0  0  0  0
  7  8  1  0  0  0  0
  7 46  1  0  0  0  0
  7 47  1  0  0  0  0
  8  9  1  0  0  0  0
  8 48  1  0  0  0  0
  8 49  1  0  0  0  0
  9 10  1  0  0  0  0
 10 15  2  0  0  0  0
 10 11  1  0  0  0  0
 11 12  2  0  0  0  0
 11 50  1  0  0  0  0
 12 13  1  0  0  0  0
 12 51  1  0  0  0  0
 13 14  2  0  0  0  0
 13 16  1  0  0  0  0
 14 15  1  0  0  0  0
 14 52  1  0  0  0  0
 15 53  1  0  0  0  0
 16 17  1  0  0  0  0
 16 54  1  0  0  0  0
 16 55  1  0  0  0  0
 17 18  1  0  0  0  0
 17 19  1  0  0  0  0
 17 21  1  0  0  0  0
 19 20  2  0  0  0  0
 19 71  1  0  0  0  0
 21 22  1  0  0  0  0
 21 56  1  0  0  0  0
 22 27  2  0  0  0  0
 22 23  1  0  0  0  0
 23 24  2  0  0  0  0
 23 57  1  0  0  0  0
 24 25  1  0  0  0  0
 24 58  1  0  0  0  0
 25 26  2  0  0  0  0
 25 59  1  0  0  0  0
 26 27  1  0  0  0  0
 26 60  1  0  0  0  0
 27 28  1  0  0  0  0
 28 29  2  0  0  0  0
 28 30  1  0  0  0  0
 30 35  2  0  0  0  0
 30 31  1  0  0  0  0
 31 32  2  0  0  0  0
 31 61  1  0  0  0  0
 32 33  1  0  0  0  0
 32 62  1  0  0  0  0
 33 34  2  0  0  0  0
 33 63  1  0  0  0  0
 34 35  1  0  0  0  0
 34 64  1  0  0  0  0
 35 65  1  0  0  0  0
 36 41  2  0  0  0  0
 36 37  1  0  0  0  0
 37 38  2  0  0  0  0
 37 66  1  0  0  0  0
 38 39  1  0  0  0  0
 38 67  1  0  0  0  0
 39 40  2  0  0  0  0
 39 68  1  0  0  0  0
 40 41  1  0  0  0  0
 40 69  1  0  0  0  0
 41 70  1  0  0  0  0
M  CHG  1  71  -1
M  END
$$$$
ZINC03815809
  -OEChem-08230709403D

 71 75  0     1  0  0  0  0  0999 V2000
    5.1447    4.1093    8.3192 C   0  0  0  0  0  0  0  0  0  0  0  0
    3.7325    3.7537    8.4786 N   0  0  0  0  0  0  0  0  0  0  0  0
    2.7447    4.5627    8.9667 C   0  0  0  0  0  0  0  0  0  0  0  0
    1.5980    3.8343    8.9459 C   0  0  0  0  0  0  0  0  0  0  0  0
    1.8950    2.6161    8.4494 N   0  0  0  0  0  0  0  0  0  0  0  0
    3.1665    2.5670    8.1669 C   0  0  0  0  0  0  0  0  0  0  0  0
    3.8899    1.3767    7.5916 C   0  0  0  0  0  0  0  0  0  0  0  0
    3.8574    1.4498    6.0637 C   0  0  0  0  0  0  0  0  0  0  0  0
    4.5434    0.3211    5.5181 O   0  0  0  0  0  0  0  0  0  0  0  0
    4.6067    0.2333    4.1635 C   0  0  0  0  0  0  0  0  0  0  0  0
    5.2575   -0.8365    3.5662 C   0  0  0  0  0  0  0  0  0  0  0  0
    5.3201   -0.9238    2.1890 C   0  0  0  0  0  0  0  0  0  0  0  0
    4.7350    0.0540    1.4058 C   0  0  0  0  0  0  0  0  0  0  0  0
    4.0907    1.1241    1.9987 C   0  0  0  0  0  0  0  0  0  0  0  0
    4.0204    1.2130    3.3755 C   0  0  0  0  0  0  0  0  0  0  0  0
    4.8048   -0.0437   -0.0964 C   0  0  0  0  0  0  0  0  0  0  0  0
    3.5939   -0.8227   -0.6137 C   0  0  2  0  0  0  0  0  0  0  0  0
    3.5460   -1.7918   -0.1169 H   0  0  0  0  0  0  0  0  0  0  0  0
    3.7257   -1.0267   -2.1010 C   0  0  0  0  0  0  0  0  0  0  0  0
    2.8842   -0.5868   -2.8480 O   0  0  0  0  0  0  0  0  0  0  0  0
    2.3705   -0.0681   -0.3308 N   0  0  0  0  0  0  0  0  0  0  0  0
    1.1571   -0.7318   -0.2130 C   0  0  0  0  0  0  0  0  0  0  0  0
    1.0782   -2.0947   -0.4725 C   0  0  0  0  0  0  0  0  0  0  0  0
   -0.1300   -2.7509   -0.3603 C   0  0  0  0  0  0  0  0  0  0  0  0
   -1.2721   -2.0608    0.0168 C   0  0  0  0  0  0  0  0  0  0  0  0
   -1.2138   -0.7112    0.2833 C   0  0  0  0  0  0  0  0  0  0  0  0
    0.0031   -0.0306    0.1743 C   0  0  0  0  0  0  0  0  0  0  0  0
    0.0731    1.4132    0.4580 C   0  0  0  0  0  0  0  0  0  0  0  0
    0.0489    1.8089    1.6076 O   0  0  0  0  0  0  0  0  0  0  0  0
    0.1787    2.3807   -0.6545 C   0  0  0  0  0  0  0  0  0  0  0  0
    0.1643    1.9329   -1.9771 C   0  0  0  0  0  0  0  0  0  0  0  0
    0.2589    2.8416   -3.0105 C   0  0  0  0  0  0  0  0  0  0  0  0
    0.3777    4.1933   -2.7388 C   0  0  0  0  0  0  0  0  0  0  0  0
    0.3979    4.6434   -1.4304 C   0  0  0  0  0  0  0  0  0  0  0  0
    0.2992    3.7461   -0.3875 C   0  0  0  0  0  0  0  0  0  0  0  0
    0.2595    4.2963    9.3891 C   0  0  0  0  0  0  0  0  0  0  0  0
    0.0953    5.5865    9.8893 C   0  0  0  0  0  0  0  0  0  0  0  0
   -1.1529    6.0124   10.2962 C   0  0  0  0  0  0  0  0  0  0  0  0
   -2.2377    5.1578   10.2175 C   0  0  0  0  0  0  0  0  0  0  0  0
   -2.0795    3.8745    9.7262 C   0  0  0  0  0  0  0  0  0  0  0  0
   -0.8369    3.4396    9.3121 C   0  0  0  0  0  0  0  0  0  0  0  0
    5.3016    4.5391    7.3299 H   0  0  0  0  0  0  0  0  0  0  0  0
    5.4241    4.8378    9.0803 H   0  0  0  0  0  0  0  0  0  0  0  0
    5.7590    3.2156    8.4286 H   0  0  0  0  0  0  0  0  0  0  0  0
    2.8553    5.5815    9.3076 H   0  0  0  0  0  0  0  0  0  0  0  0
    3.4013    0.4601    7.9220 H   0  0  0  0  0  0  0  0  0  0  0  0
    4.9249    1.3804    7.9336 H   0  0  0  0  0  0  0  0  0  0  0  0
    4.3460    2.3664    5.7333 H   0  0  0  0  0  0  0  0  0  0  0  0
    2.8225    1.4461    5.7217 H   0  0  0  0  0  0  0  0  0  0  0  0
    5.7144   -1.6007    4.1775 H   0  0  0  0  0  0  0  0  0  0  0  0
    5.8263   -1.7566    1.7235 H   0  0  0  0  0  0  0  0  0  0  0  0
    3.6385    1.8891    1.3848 H   0  0  0  0  0  0  0  0  0  0  0  0
    3.5132    2.0468    3.8380 H   0  0  0  0  0  0  0  0  0  0  0  0
    5.7199   -0.5610   -0.3847 H   0  0  0  0  0  0  0  0  0  0  0  0
    4.8029    0.9581   -0.5261 H   0  0  0  0  0  0  0  0  0  0  0  0
    2.4084    0.8955   -0.2258 H   0  0  0  0  0  0  0  0  0  0  0  0
    1.9629   -2.6398   -0.7667 H   0  0  0  0  0  0  0  0  0  0  0  0
   -0.1867   -3.8094   -0.5671 H   0  0  0  0  0  0  0  0  0  0  0  0
   -2.2127   -2.5848    0.1014 H   0  0  0  0  0  0  0  0  0  0  0  0
   -2.1066   -0.1790    0.5765 H   0  0  0  0  0  0  0  0  0  0  0  0
    0.0758    0.8779   -2.1905 H   0  0  0  0  0  0  0  0  0  0  0  0
    0.2441    2.4971   -4.0340 H   0  0  0  0  0  0  0  0  0  0  0  0
    0.4552    4.9002   -3.5517 H   0  0  0  0  0  0  0  0  0  0  0  0
    0.4908    5.6997   -1.2254 H   0  0  0  0  0  0  0  0  0  0  0  0
    0.3155    4.0986    0.6332 H   0  0  0  0  0  0  0  0  0  0  0  0
    0.9425    6.2531    9.9554 H   0  0  0  0  0  0  0  0  0  0  0  0
   -1.2820    7.0134   10.6805 H   0  0  0  0  0  0  0  0  0  0  0  0
   -3.2119    5.4940   10.5405 H   0  0  0  0  0  0  0  0  0  0  0  0
   -2.9300    3.2114    9.6670 H   0  0  0  0  0  0  0  0  0  0  0  0
   -0.7145    2.4374    8.9287 H   0  0  0  0  0  0  0  0  0  0  0  0
    4.7781   -1.6971   -2.5958 O   0  5  0  0  0  0  0  0  0  0  0  0
  1  2  1  0  0  0  0
  1 42  1  0  0  0  0
  1 43  1  0  0  0  0
  1 44  1  0  0  0  0
  2  6  1  0  0  0  0
  2  3  1  0  0  0  0
  3  4  2  0  0  0  0
  3 45  1  0  0  0  0
  4  5  1  0  0  0  0
  4 36  1  0  0  0  0
  5  6  2  0  0  0  0
  6  7  1  0  0  0  0
  7  8  1  0  0  0  0
  7 46  1  0  0  0  0
  7 47  1  0  0  0  0
  8  9  1  0  0  0  0
  8 48  1  0  0  0  0
  8 49  1  0  0  0  0
  9 10  1  0  0  0  0
 10 15  2  0  0  0  0
 10 11  1  0  0  0  0
 11 12  2  0  0  0  0
 11 50  1  0  0  0  0
 12 13  1  0  0  0  0
 12 51  1  0  0  0  0
 13 14  2  0  0  0  0
 13 16  1  0  0  0  0
 14 15  1  0  0  0  0
 14 52  1  0  0  0  0
 15 53  1  0  0  0  0
 16 17  1  0  0  0  0
 16 54  1  0  0  0  0
 16 55  1  0  0  0  0
 17 18  1  0  0  0  0
 17 19  1  0  0  0  0
 17 21  1  0  0  0  0
 19 20  2  0  0  0  0
 19 71  1  0  0  0  0
 21 22  1  0  0  0  0
 21 56  1  0  0  0  0
 22 27  2  0  0  0  0
 22 23  1  0  0  0  0
 23 24  2  0  0  0  0
 23 57  1  0  0  0  0
 24 25  1  0  0  0  0
 24 58  1  0  0  0  0
 25 26  2  0  0  0  0
 25 59  1  0  0  0  0
 26 27  1  0  0  0  0
 26 60  1  0  0  0  0
 27 28  1  0  0  0  0
 28 29  2  0  0  0  0
 28 30  1  0  0  0  0
 30 35  2  0  0  0  0
 30 31  1  0  0  0  0
 31 32  2  0  0  0  0
 31 61  1  0  0  0  0
 32 33  1  0  0  0  0
 32 62  1  0  0  0  0
 33 34  2  0  0  0  0
 33 63  1  0  0  0  0
 34 35  1  0  0  0  0
 34 64  1  0  0  0  0
 35 65  1  0  0  0  0
 36 41  2  0  0  0  0
 36 37  1  0  0  0  0
 37 38  2  0  0  0  0
 37 66  1  0  0  0  0
 38 39  1  0  0  0  0
 38 67  1  0  0  0  0
 39 40  2  0  0  0  0
 39 68  1  0  0  0  0
 40 41  1  0  0  0  0
 40 69  1  0  0  0  0
 41 70  1  0  0  0  0
M  CHG  1  71  -1
M  END
$$$$
ZINC03832270
  -OEChem-08230709403D

 70 74  0     1  0  0  0  0  0999 V2000
   -6.5941   -0.7891   -5.6175 C   0  0  0  0  0  0  0  0  0  0  0  0
   -5.4505   -0.0385   -4.9854 C   0  0  0  0  0  0  0  0  0  0  0  0
   -4.8666    1.1210   -5.3863 C   0  0  0  0  0  0  0  0  0  0  0  0
   -3.8237    1.6379   -4.6536 C   0  0  0  0  0  0  0  0  0  0  0  0
   -3.4067    0.9516   -3.5280 C   0  0  0  0  0  0  0  0  0  0  0  0
   -4.5130   -0.4498   -3.5231 S   0  0  0  0  0  0  0  0  0  0  0  0
   -2.3293    1.2853   -2.5851 C   0  0  0  0  0  0  0  0  0  0  0  0
   -1.9826    0.5772   -1.5323 N   0  0  0  0  0  0  0  0  0  0  0  0
   -0.9648    1.1974   -0.9152 C   0  0  0  0  0  0  0  0  0  0  0  0
   -0.6744    2.3095   -1.6132 C   0  0  0  0  0  0  0  0  0  0  0  0
   -1.5277    2.3634   -2.6566 O   0  0  0  0  0  0  0  0  0  0  0  0
    0.4051    3.3101   -1.2899 C   0  0  0  0  0  0  0  0  0  0  0  0
   -0.2669    0.7274    0.3350 C   0  0  0  0  0  0  0  0  0  0  0  0
   -0.9659    1.3169    1.5617 C   0  0  0  0  0  0  0  0  0  0  0  0
   -0.3041    0.8712    2.7472 O   0  0  0  0  0  0  0  0  0  0  0  0
   -0.8034    1.3072    3.9335 C   0  0  0  0  0  0  0  0  0  0  0  0
   -1.9041    2.1513    3.9560 C   0  0  0  0  0  0  0  0  0  0  0  0
   -2.4130    2.5889    5.1635 C   0  0  0  0  0  0  0  0  0  0  0  0
   -1.8198    2.1947    6.3486 C   0  0  0  0  0  0  0  0  0  0  0  0
   -0.7192    1.3580    6.3287 C   0  0  0  0  0  0  0  0  0  0  0  0
   -0.2097    0.9135    5.1240 C   0  0  0  0  0  0  0  0  0  0  0  0
   -2.3735    2.6781    7.6642 C   0  0  0  0  0  0  0  0  0  0  0  0
   -1.6892    3.9898    8.0544 C   0  0  2  0  0  0  0  0  0  0  0  0
   -0.6087    3.8470    8.0638 H   0  0  0  0  0  0  0  0  0  0  0  0
   -2.1524    4.4094    9.4257 C   0  0  0  0  0  0  0  0  0  0  0  0
   -2.7146    5.4684    9.5756 O   0  0  0  0  0  0  0  0  0  0  0  0
   -2.0361    5.0295    7.0824 N   0  0  0  0  0  0  0  0  0  0  0  0
   -1.1883    6.1120    6.8918 C   0  0  0  0  0  0  0  0  0  0  0  0
   -0.0691    6.2735    7.6993 C   0  0  0  0  0  0  0  0  0  0  0  0
    0.7750    7.3471    7.5040 C   0  0  0  0  0  0  0  0  0  0  0  0
    0.5096    8.2782    6.5114 C   0  0  0  0  0  0  0  0  0  0  0  0
   -0.5974    8.1391    5.7044 C   0  0  0  0  0  0  0  0  0  0  0  0
   -1.4603    7.0534    5.8851 C   0  0  0  0  0  0  0  0  0  0  0  0
   -2.6468    6.8984    5.0259 C   0  0  0  0  0  0  0  0  0  0  0  0
   -2.5220    6.5040    3.8824 O   0  0  0  0  0  0  0  0  0  0  0  0
   -3.9889    7.2222    5.5537 C   0  0  0  0  0  0  0  0  0  0  0  0
   -4.1264    7.7771    6.8278 C   0  0  0  0  0  0  0  0  0  0  0  0
   -5.3815    8.0822    7.3118 C   0  0  0  0  0  0  0  0  0  0  0  0
   -6.5036    7.8291    6.5426 C   0  0  0  0  0  0  0  0  0  0  0  0
   -6.3749    7.2741    5.2814 C   0  0  0  0  0  0  0  0  0  0  0  0
   -5.1255    6.9694    4.7828 C   0  0  0  0  0  0  0  0  0  0  0  0
   -6.2034   -1.5035   -6.3421 H   0  0  0  0  0  0  0  0  0  0  0  0
   -7.1500   -1.3215   -4.8458 H   0  0  0  0  0  0  0  0  0  0  0  0
   -7.2561   -0.0852   -6.1219 H   0  0  0  0  0  0  0  0  0  0  0  0
   -5.2179    1.6316   -6.2708 H   0  0  0  0  0  0  0  0  0  0  0  0
   -3.3418    2.5577   -4.9505 H   0  0  0  0  0  0  0  0  0  0  0  0
    1.3313    3.0179   -1.7847 H   0  0  0  0  0  0  0  0  0  0  0  0
    0.1021    4.2971   -1.6395 H   0  0  0  0  0  0  0  0  0  0  0  0
    0.5626    3.3391   -0.2118 H   0  0  0  0  0  0  0  0  0  0  0  0
   -0.3033   -0.3609    0.3842 H   0  0  0  0  0  0  0  0  0  0  0  0
    0.7724    1.0557    0.3163 H   0  0  0  0  0  0  0  0  0  0  0  0
   -0.9295    2.4052    1.5126 H   0  0  0  0  0  0  0  0  0  0  0  0
   -2.0051    0.9887    1.5805 H   0  0  0  0  0  0  0  0  0  0  0  0
   -2.3653    2.4628    3.0304 H   0  0  0  0  0  0  0  0  0  0  0  0
   -3.2726    3.2424    5.1817 H   0  0  0  0  0  0  0  0  0  0  0  0
   -0.2576    1.0515    7.2557 H   0  0  0  0  0  0  0  0  0  0  0  0
    0.6502    0.2603    5.1090 H   0  0  0  0  0  0  0  0  0  0  0  0
   -3.4467    2.8428    7.5682 H   0  0  0  0  0  0  0  0  0  0  0  0
   -2.1883    1.9287    8.4337 H   0  0  0  0  0  0  0  0  0  0  0  0
   -2.8581    4.9615    6.5720 H   0  0  0  0  0  0  0  0  0  0  0  0
    0.1426    5.5554    8.4777 H   0  0  0  0  0  0  0  0  0  0  0  0
    1.6462    7.4654    8.1313 H   0  0  0  0  0  0  0  0  0  0  0  0
    1.1746    9.1174    6.3707 H   0  0  0  0  0  0  0  0  0  0  0  0
   -0.7988    8.8673    4.9327 H   0  0  0  0  0  0  0  0  0  0  0  0
   -3.2518    7.9706    7.4311 H   0  0  0  0  0  0  0  0  0  0  0  0
   -5.4890    8.5152    8.2954 H   0  0  0  0  0  0  0  0  0  0  0  0
   -7.4842    8.0654    6.9283 H   0  0  0  0  0  0  0  0  0  0  0  0
   -7.2548    7.0794    4.6862 H   0  0  0  0  0  0  0  0  0  0  0  0
   -5.0265    6.5360    3.7985 H   0  0  0  0  0  0  0  0  0  0  0  0
   -1.9405    3.6068   10.4805 O   0  5  0  0  0  0  0  0  0  0  0  0
  1  2  1  0  0  0  0
  1 42  1  0  0  0  0
  1 43  1  0  0  0  0
  1 44  1  0  0  0  0
  2  6  1  0  0  0  0
  2  3  2  0  0  0  0
  3  4  1  0  0  0  0
  3 45  1  0  0  0  0
  4  5  2  0  0  0  0
  4 46  1  0  0  0  0
  5  6  1  0  0  0  0
  5  7  1  0  0  0  0
  7 11  1  0  0  0  0
  7  8  2  0  0  0  0
  8  9  1  0  0  0  0
  9 10  2  0  0  0  0
  9 13  1  0  0  0  0
 10 11  1  0  0  0  0
 10 12  1  0  0  0  0
 12 47  1  0  0  0  0
 12 48  1  0  0  0  0
 12 49  1  0  0  0  0
 13 14  1  0  0  0  0
 13 50  1  0  0  0  0
 13 51  1  0  0  0  0
 14 15  1  0  0  0  0
 14 52  1  0  0  0  0
 14 53  1  0  0  0  0
 15 16  1  0  0  0  0
 16 21  2  0  0  0  0
 16 17  1  0  0  0  0
 17 18  2  0  0  0  0
 17 54  1  0  0  0  0
 18 19  1  0  0  0  0
 18 55  1  0  0  0  0
 19 20  2  0  0  0  0
 19 22  1  0  0  0  0
 20 21  1  0  0  0  0
 20 56  1  0  0  0  0
 21 57  1  0  0  0  0
 22 23  1  0  0  0  0
 22 58  1  0  0  0  0
 22 59  1  0  0  0  0
 23 24  1  0  0  0  0
 23 25  1  0  0  0  0
 23 27  1  0  0  0  0
 25 26  2  0  0  0  0
 25 70  1  0  0  0  0
 27 28  1  0  0  0  0
 27 60  1  0  0  0  0
 28 33  2  0  0  0  0
 28 29  1  0  0  0  0
 29 30  2  0  0  0  0
 29 61  1  0  0  0  0
 30 31  1  0  0  0  0
 30 62  1  0  0  0  0
 31 32  2  0  0  0  0
 31 63  1  0  0  0  0
 32 33  1  0  0  0  0
 32 64  1  0  0  0  0
 33 34  1  0  0  0  0
 34 35  2  0  0  0  0
 34 36  1  0  0  0  0
 36 41  2  0  0  0  0
 36 37  1  0  0  0  0
 37 38  2  0  0  0  0
 37 65  1  0  0  0  0
 38 39  1  0  0  0  0
 38 66  1  0  0  0  0
 39 40  2  0  0  0  0
 39 67  1  0  0  0  0
 40 41  1  0  0  0  0
 40 68  1  0  0  0  0
 41 69  1  0  0  0  0
M  CHG  1  70  -1
M  END
$$$$
ZINC03832271
  -OEChem-08230709403D

 69 73  0     1  0  0  0  0  0999 V2000
    0.3691    8.1598   -0.2566 C   0  0  0  0  0  0  0  0  0  0  0  0
    0.7989    6.7184   -0.1642 C   0  0  0  0  0  0  0  0  0  0  0  0
    2.0504    6.1851   -0.1308 C   0  0  0  0  0  0  0  0  0  0  0  0
    2.2046    4.8857   -0.0481 N   0  0  0  0  0  0  0  0  0  0  0  0
    1.1609    4.0700    0.0043 C   0  0  0  0  0  0  0  0  0  0  0  0
   -0.1943    5.2335   -0.0771 S   0  0  0  0  0  0  0  0  0  0  0  0
    1.1268    2.5948    0.0983 C   0  0  0  0  0  0  0  0  0  0  0  0
   -0.0903    1.9048    0.1429 C   0  0  0  0  0  0  0  0  0  0  0  0
   -0.0756    0.5283    0.2301 C   0  0  0  0  0  0  0  0  0  0  0  0
    1.0636   -0.1360    0.2710 N   0  0  0  0  0  0  0  0  0  0  0  0
    2.2323    0.4750    0.2315 C   0  0  0  0  0  0  0  0  0  0  0  0
    2.3106    1.8494    0.1453 C   0  0  0  0  0  0  0  0  0  0  0  0
    3.2568    7.0863   -0.1883 C   0  0  0  0  0  0  0  0  0  0  0  0
    3.6646    7.3002   -1.6474 C   0  0  0  0  0  0  0  0  0  0  0  0
    4.8086    8.1548   -1.7019 O   0  0  0  0  0  0  0  0  0  0  0  0
    5.3022    8.4472   -2.9339 C   0  0  0  0  0  0  0  0  0  0  0  0
    4.7012    7.9179   -4.0667 C   0  0  0  0  0  0  0  0  0  0  0  0
    5.2016    8.2209   -5.3182 C   0  0  0  0  0  0  0  0  0  0  0  0
    6.3067    9.0426   -5.4417 C   0  0  0  0  0  0  0  0  0  0  0  0
    6.9109    9.5668   -4.3140 C   0  0  0  0  0  0  0  0  0  0  0  0
    6.4112    9.2710   -3.0605 C   0  0  0  0  0  0  0  0  0  0  0  0
    6.8540    9.3670   -6.8079 C   0  0  0  0  0  0  0  0  0  0  0  0
    7.9036    8.3242   -7.1976 C   0  0  2  0  0  0  0  0  0  0  0  0
    8.6694    8.2727   -6.4236 H   0  0  0  0  0  0  0  0  0  0  0  0
    8.5384    8.7155   -8.5071 C   0  0  0  0  0  0  0  0  0  0  0  0
    8.4629    7.9763   -9.4599 O   0  0  0  0  0  0  0  0  0  0  0  0
    7.2622    7.0145   -7.3379 N   0  0  0  0  0  0  0  0  0  0  0  0
    8.0073    5.8554   -7.1706 C   0  0  0  0  0  0  0  0  0  0  0  0
    9.3821    5.9295   -6.9834 C   0  0  0  0  0  0  0  0  0  0  0  0
   10.1196    4.7763   -6.8116 C   0  0  0  0  0  0  0  0  0  0  0  0
    9.5000    3.5360   -6.8354 C   0  0  0  0  0  0  0  0  0  0  0  0
    8.1396    3.4409   -7.0253 C   0  0  0  0  0  0  0  0  0  0  0  0
    7.3763    4.6004   -7.1953 C   0  0  0  0  0  0  0  0  0  0  0  0
    5.9204    4.5065   -7.3993 C   0  0  0  0  0  0  0  0  0  0  0  0
    5.1892    4.2613   -6.4591 O   0  0  0  0  0  0  0  0  0  0  0  0
    5.3484    4.7102   -8.7469 C   0  0  0  0  0  0  0  0  0  0  0  0
    6.1904    4.8844   -9.8473 C   0  0  0  0  0  0  0  0  0  0  0  0
    5.6499    5.0683  -11.1029 C   0  0  0  0  0  0  0  0  0  0  0  0
    4.2766    5.0918  -11.2719 C   0  0  0  0  0  0  0  0  0  0  0  0
    3.4364    4.9255  -10.1850 C   0  0  0  0  0  0  0  0  0  0  0  0
    3.9635    4.7350   -8.9246 C   0  0  0  0  0  0  0  0  0  0  0  0
    0.2647    8.4414   -1.3044 H   0  0  0  0  0  0  0  0  0  0  0  0
   -0.5872    8.2870    0.2508 H   0  0  0  0  0  0  0  0  0  0  0  0
    1.1188    8.7936    0.2171 H   0  0  0  0  0  0  0  0  0  0  0  0
   -1.0265    2.4418    0.1049 H   0  0  0  0  0  0  0  0  0  0  0  0
   -1.0095   -0.0131    0.2650 H   0  0  0  0  0  0  0  0  0  0  0  0
    3.1401   -0.1090    0.2676 H   0  0  0  0  0  0  0  0  0  0  0  0
    3.2708    2.3429    0.1137 H   0  0  0  0  0  0  0  0  0  0  0  0
    3.0146    8.0472    0.2658 H   0  0  0  0  0  0  0  0  0  0  0  0
    4.0812    6.6250    0.3555 H   0  0  0  0  0  0  0  0  0  0  0  0
    3.9069    6.3393   -2.1015 H   0  0  0  0  0  0  0  0  0  0  0  0
    2.8403    7.7615   -2.1912 H   0  0  0  0  0  0  0  0  0  0  0  0
    3.8405    7.2727   -3.9705 H   0  0  0  0  0  0  0  0  0  0  0  0
    4.7314    7.8127   -6.2006 H   0  0  0  0  0  0  0  0  0  0  0  0
    7.7740   10.2084   -4.4131 H   0  0  0  0  0  0  0  0  0  0  0  0
    6.8837    9.6805   -2.1799 H   0  0  0  0  0  0  0  0  0  0  0  0
    6.0430    9.3559   -7.5361 H   0  0  0  0  0  0  0  0  0  0  0  0
    7.3130   10.3554   -6.7901 H   0  0  0  0  0  0  0  0  0  0  0  0
    6.3169    6.9574   -7.5477 H   0  0  0  0  0  0  0  0  0  0  0  0
    9.8733    6.8912   -6.9680 H   0  0  0  0  0  0  0  0  0  0  0  0
   11.1872    4.8397   -6.6616 H   0  0  0  0  0  0  0  0  0  0  0  0
   10.0879    2.6395   -6.7046 H   0  0  0  0  0  0  0  0  0  0  0  0
    7.6624    2.4722   -7.0425 H   0  0  0  0  0  0  0  0  0  0  0  0
    7.2623    4.8712   -9.7161 H   0  0  0  0  0  0  0  0  0  0  0  0
    6.2999    5.1991  -11.9555 H   0  0  0  0  0  0  0  0  0  0  0  0
    3.8586    5.2409  -12.2565 H   0  0  0  0  0  0  0  0  0  0  0  0
    2.3656    4.9445  -10.3239 H   0  0  0  0  0  0  0  0  0  0  0  0
    3.3067    4.6056   -8.0771 H   0  0  0  0  0  0  0  0  0  0  0  0
    9.1878    9.8853   -8.6151 O   0  5  0  0  0  0  0  0  0  0  0  0
  1  2  1  0  0  0  0
  1 42  1  0  0  0  0
  1 43  1  0  0  0  0
  1 44  1  0  0  0  0
  2  6  1  0  0  0  0
  2  3  2  0  0  0  0
  3  4  1  0  0  0  0
  3 13  1  0  0  0  0
  4  5  2  0  0  0  0
  5  6  1  0  0  0  0
  5  7  1  0  0  0  0
  7 12  2  0  0  0  0
  7  8  1  0  0  0  0
  8  9  2  0  0  0  0
  8 45  1  0  0  0  0
  9 10  1  0  0  0  0
  9 46  1  0  0  0  0
 10 11  2  0  0  0  0
 11 12  1  0  0  0  0
 11 47  1  0  0  0  0
 12 48  1  0  0  0  0
 13 14  1  0  0  0  0
 13 49  1  0  0  0  0
 13 50  1  0  0  0  0
 14 15  1  0  0  0  0
 14 51  1  0  0  0  0
 14 52  1  0  0  0  0
 15 16  1  0  0  0  0
 16 21  2  0  0  0  0
 16 17  1  0  0  0  0
 17 18  2  0  0  0  0
 17 53  1  0  0  0  0
 18 19  1  0  0  0  0
 18 54  1  0  0  0  0
 19 20  2  0  0  0  0
 19 22  1  0  0  0  0
 20 21  1  0  0  0  0
 20 55  1  0  0  0  0
 21 56  1  0  0  0  0
 22 23  1  0  0  0  0
 22 57  1  0  0  0  0
 22 58  1  0  0  0  0
 23 24  1  0  0  0  0
 23 25  1  0  0  0  0
 23 27  1  0  0  0  0
 25 26  2  0  0  0  0
 25 69  1  0  0  0  0
 27 28  1  0  0  0  0
 27 59  1  0  0  0  0
 28 33  2  0  0  0  0
 28 29  1  0  0  0  0
 29 30  2  0  0  0  0
 29 60  1  0  0  0  0
 30 31  1  0  0  0  0
 30 61  1  0  0  0  0
 31 32  2  0  0  0  0
 31 62  1  0  0  0  0
 32 33  1  0  0  0  0
 32 63  1  0  0  0  0
 33 34  1  0  0  0  0
 34 35  2  0  0  0  0
 34 36  1  0  0  0  0
 36 41  2  0  0  0  0
 36 37  1  0  0  0  0
 37 38  2  0  0  0  0
 37 64  1  0  0  0  0
 38 39  1  0  0  0  0
 38 65  1  0  0  0  0
 39 40  2  0  0  0  0
 39 66  1  0  0  0  0
 40 41  1  0  0  0  0
 40 67  1  0  0  0  0
 41 68  1  0  0  0  0
M  CHG  1  69  -1
M  END
$$$$
ZINC03832272
  -OEChem-08230709403D

 69 73  0     1  0  0  0  0  0999 V2000
   -3.3063    5.2137   10.4606 C   0  0  0  0  0  0  0  0  0  0  0  0
   -2.1600    4.3927    9.9286 C   0  0  0  0  0  0  0  0  0  0  0  0
   -0.8729    4.7878    9.8070 C   0  0  0  0  0  0  0  0  0  0  0  0
   -0.2153    3.6500    9.2579 C   0  0  0  0  0  0  0  0  0  0  0  0
   -1.1379    2.7278    9.1218 N   0  0  0  0  0  0  0  0  0  0  0  0
   -2.2182    3.1272    9.4897 O   0  0  0  0  0  0  0  0  0  0  0  0
    1.2192    3.5304    8.9163 C   0  0  0  0  0  0  0  0  0  0  0  0
    1.8803    2.4990    8.4107 N   0  0  0  0  0  0  0  0  0  0  0  0
    3.1665    2.5670    8.1669 C   0  0  0  0  0  0  0  0  0  0  0  0
    3.8484    3.7128    8.4396 C   0  0  0  0  0  0  0  0  0  0  0  0
    2.5279    4.7385    9.0745 S   0  0  0  0  0  0  0  0  0  0  0  0
    5.3101    4.0300    8.2556 C   0  0  0  0  0  0  0  0  0  0  0  0
    3.8899    1.3767    7.5916 C   0  0  0  0  0  0  0  0  0  0  0  0
    3.8574    1.4498    6.0637 C   0  0  0  0  0  0  0  0  0  0  0  0
    4.5434    0.3211    5.5181 O   0  0  0  0  0  0  0  0  0  0  0  0
    4.6067    0.2333    4.1635 C   0  0  0  0  0  0  0  0  0  0  0  0
    5.2575   -0.8365    3.5662 C   0  0  0  0  0  0  0  0  0  0  0  0
    5.3201   -0.9238    2.1890 C   0  0  0  0  0  0  0  0  0  0  0  0
    4.7350    0.0540    1.4058 C   0  0  0  0  0  0  0  0  0  0  0  0
    4.0907    1.1241    1.9987 C   0  0  0  0  0  0  0  0  0  0  0  0
    4.0204    1.2130    3.3755 C   0  0  0  0  0  0  0  0  0  0  0  0
    4.8048   -0.0437   -0.0964 C   0  0  0  0  0  0  0  0  0  0  0  0
    3.5939   -0.8227   -0.6137 C   0  0  2  0  0  0  0  0  0  0  0  0
    3.5460   -1.7918   -0.1169 H   0  0  0  0  0  0  0  0  0  0  0  0
    3.7257   -1.0267   -2.1010 C   0  0  0  0  0  0  0  0  0  0  0  0
    2.8842   -0.5868   -2.8480 O   0  0  0  0  0  0  0  0  0  0  0  0
    2.3705   -0.0681   -0.3308 N   0  0  0  0  0  0  0  0  0  0  0  0
    1.1571   -0.7318   -0.2130 C   0  0  0  0  0  0  0  0  0  0  0  0
    1.0782   -2.0947   -0.4725 C   0  0  0  0  0  0  0  0  0  0  0  0
   -0.1300   -2.7509   -0.3603 C   0  0  0  0  0  0  0  0  0  0  0  0
   -1.2721   -2.0608    0.0168 C   0  0  0  0  0  0  0  0  0  0  0  0
   -1.2138   -0.7112    0.2833 C   0  0  0  0  0  0  0  0  0  0  0  0
    0.0031   -0.0306    0.1743 C   0  0  0  0  0  0  0  0  0  0  0  0
    0.0731    1.4132    0.4580 C   0  0  0  0  0  0  0  0  0  0  0  0
    0.0489    1.8089    1.6076 O   0  0  0  0  0  0  0  0  0  0  0  0
    0.1787    2.3807   -0.6545 C   0  0  0  0  0  0  0  0  0  0  0  0
    0.1643    1.9329   -1.9771 C   0  0  0  0  0  0  0  0  0  0  0  0
    0.2589    2.8416   -3.0105 C   0  0  0  0  0  0  0  0  0  0  0  0
    0.3777    4.1933   -2.7388 C   0  0  0  0  0  0  0  0  0  0  0  0
    0.3979    4.6434   -1.4304 C   0  0  0  0  0  0  0  0  0  0  0  0
    0.2992    3.7461   -0.3875 C   0  0  0  0  0  0  0  0  0  0  0  0
   -4.2197    4.6193   10.4389 H   0  0  0  0  0  0  0  0  0  0  0  0
   -3.0927    5.5142   11.4863 H   0  0  0  0  0  0  0  0  0  0  0  0
   -3.4356    6.1013    9.8413 H   0  0  0  0  0  0  0  0  0  0  0  0
   -0.4434    5.7447   10.0645 H   0  0  0  0  0  0  0  0  0  0  0  0
    5.4688    4.4478    7.2614 H   0  0  0  0  0  0  0  0  0  0  0  0
    5.6222    4.7542    9.0081 H   0  0  0  0  0  0  0  0  0  0  0  0
    5.8964    3.1176    8.3642 H   0  0  0  0  0  0  0  0  0  0  0  0
    3.4013    0.4601    7.9220 H   0  0  0  0  0  0  0  0  0  0  0  0
    4.9249    1.3804    7.9336 H   0  0  0  0  0  0  0  0  0  0  0  0
    4.3460    2.3664    5.7333 H   0  0  0  0  0  0  0  0  0  0  0  0
    2.8225    1.4461    5.7217 H   0  0  0  0  0  0  0  0  0  0  0  0
    5.7144   -1.6007    4.1775 H   0  0  0  0  0  0  0  0  0  0  0  0
    5.8263   -1.7566    1.7235 H   0  0  0  0  0  0  0  0  0  0  0  0
    3.6385    1.8891    1.3848 H   0  0  0  0  0  0  0  0  0  0  0  0
    3.5132    2.0468    3.8380 H   0  0  0  0  0  0  0  0  0  0  0  0
    5.7199   -0.5610   -0.3847 H   0  0  0  0  0  0  0  0  0  0  0  0
    4.8029    0.9581   -0.5261 H   0  0  0  0  0  0  0  0  0  0  0  0
    2.4084    0.8955   -0.2258 H   0  0  0  0  0  0  0  0  0  0  0  0
    1.9629   -2.6398   -0.7667 H   0  0  0  0  0  0  0  0  0  0  0  0
   -0.1867   -3.8094   -0.5671 H   0  0  0  0  0  0  0  0  0  0  0  0
   -2.2127   -2.5848    0.1014 H   0  0  0  0  0  0  0  0  0  0  0  0
   -2.1066   -0.1790    0.5765 H   0  0  0  0  0  0  0  0  0  0  0  0
    0.0758    0.8779   -2.1905 H   0  0  0  0  0  0  0  0  0  0  0  0
    0.2441    2.4971   -4.0340 H   0  0  0  0  0  0  0  0  0  0  0  0
    0.4552    4.9002   -3.5517 H   0  0  0  0  0  0  0  0  0  0  0  0
    0.4908    5.6997   -1.2254 H   0  0  0  0  0  0  0  0  0  0  0  0
    0.3155    4.0986    0.6332 H   0  0  0  0  0  0  0  0  0  0  0  0
    4.7781   -1.6971   -2.5958 O   0  5  0  0  0  0  0  0  0  0  0  0
  1  2  1  0  0  0  0
  1 42  1  0  0  0  0
  1 43  1  0  0  0  0
  1 44  1  0  0  0  0
  2  6  1  0  0  0  0
  2  3  2  0  0  0  0
  3  4  1  0  0  0  0
  3 45  1  0  0  0  0
  4  5  2  0  0  0  0
  4  7  1  0  0  0  0
  5  6  1  0  0  0  0
  7 11  1  0  0  0  0
  7  8  2  0  0  0  0
  8  9  1  0  0  0  0
  9 10  2  0  0  0  0
  9 13  1  0  0  0  0
 10 11  1  0  0  0  0
 10 12  1  0  0  0  0
 12 46  1  0  0  0  0
 12 47  1  0  0  0  0
 12 48  1  0  0  0  0
 13 14  1  0  0  0  0
 13 49  1  0  0  0  0
 13 50  1  0  0  0  0
 14 15  1  0  0  0  0
 14 51  1  0  0  0  0
 14 52  1  0  0  0  0
 15 16  1  0  0  0  0
 16 21  2  0  0  0  0
 16 17  1  0  0  0  0
 17 18  2  0  0  0  0
 17 53  1  0  0  0  0
 18 19  1  0  0  0  0
 18 54  1  0  0  0  0
 19 20  2  0  0  0  0
 19 22  1  0  0  0  0
 20 21  1  0  0  0  0
 20 55  1  0  0  0  0
 21 56  1  0  0  0  0
 22 23  1  0  0  0  0
 22 57  1  0  0  0  0
 22 58  1  0  0  0  0
 23 24  1  0  0  0  0
 23 25  1  0  0  0  0
 23 27  1  0  0  0  0
 25 26  2  0  0  0  0
 25 69  1  0  0  0  0
 27 28  1  0  0  0  0
 27 59  1  0  0  0  0
 28 33  2  0  0  0  0
 28 29  1  0  0  0  0
 29 30  2  0  0  0  0
 29 60  1  0  0  0  0
 30 31  1  0  0  0  0
 30 61  1  0  0  0  0
 31 32  2  0  0  0  0
 31 62  1  0  0  0  0
 32 33  1  0  0  0  0
 32 63  1  0  0  0  0
 33 34  1  0  0  0  0
 34 35  2  0  0  0  0
 34 36  1  0  0  0  0
 36 41  2  0  0  0  0
 36 37  1  0  0  0  0
 37 38  2  0  0  0  0
 37 64  1  0  0  0  0
 38 39  1  0  0  0  0
 38 65  1  0  0  0  0
 39 40  2  0  0  0  0
 39 66  1  0  0  0  0
 40 41  1  0  0  0  0
 40 67  1  0  0  0  0
 41 68  1  0  0  0  0
M  CHG  1  69  -1
M  END
$$$$
ZINC03832273
  -OEChem-08230709403D

 69 73  0     1  0  0  0  0  0999 V2000
    4.0909   12.3558   -0.3482 C   0  0  0  0  0  0  0  0  0  0  0  0
    3.7474   12.6711    1.0848 C   0  0  0  0  0  0  0  0  0  0  0  0
    2.6024   12.3579    1.7181 C   0  0  0  0  0  0  0  0  0  0  0  0
    2.6888   12.8184    2.9752 N   0  0  0  0  0  0  0  0  0  0  0  0
    3.8569   13.3955    3.1312 C   0  0  0  0  0  0  0  0  0  0  0  0
    4.5299   13.3195    1.9700 O   0  0  0  0  0  0  0  0  0  0  0  0
    4.3479   14.0285    4.3736 C   0  0  0  0  0  0  0  0  0  0  0  0
    3.5460   14.0455    5.5158 C   0  0  0  0  0  0  0  0  0  0  0  0
    4.0126   14.6327    6.6738 C   0  0  0  0  0  0  0  0  0  0  0  0
    5.2678   15.2140    6.7010 C   0  0  0  0  0  0  0  0  0  0  0  0
    6.0655   15.2056    5.5706 C   0  0  0  0  0  0  0  0  0  0  0  0
    5.6132   14.6166    4.4079 C   0  0  0  0  0  0  0  0  0  0  0  0
    1.4289   11.6257    1.1199 C   0  0  0  0  0  0  0  0  0  0  0  0
    1.6048   10.1207    1.3319 C   0  0  0  0  0  0  0  0  0  0  0  0
    0.4921    9.4264    0.7646 O   0  0  0  0  0  0  0  0  0  0  0  0
    0.4927    8.0714    0.8676 C   0  0  0  0  0  0  0  0  0  0  0  0
   -0.5566    7.3338    0.3388 C   0  0  0  0  0  0  0  0  0  0  0  0
   -0.5534    5.9564    0.4444 C   0  0  0  0  0  0  0  0  0  0  0  0
    0.4945    5.3128    1.0764 C   0  0  0  0  0  0  0  0  0  0  0  0
    1.5388    6.0459    1.6091 C   0  0  0  0  0  0  0  0  0  0  0  0
    1.5430    7.4232    1.5012 C   0  0  0  0  0  0  0  0  0  0  0  0
    0.4955    3.8101    1.1901 C   0  0  0  0  0  0  0  0  0  0  0  0
    1.1960    3.2068   -0.0290 C   0  0  2  0  0  0  0  0  0  0  0  0
    0.7214    3.5735   -0.9392 H   0  0  0  0  0  0  0  0  0  0  0  0
    1.0896    1.7045    0.0229 C   0  0  0  0  0  0  0  0  0  0  0  0
    2.0906    1.0289    0.0606 O   0  0  0  0  0  0  0  0  0  0  0  0
    2.6081    3.5968   -0.0234 N   0  0  0  0  0  0  0  0  0  0  0  0
    3.3213    3.6382   -1.2132 C   0  0  0  0  0  0  0  0  0  0  0  0
    2.7356    3.1993   -2.3944 C   0  0  0  0  0  0  0  0  0  0  0  0
    3.4452    3.2455   -3.5766 C   0  0  0  0  0  0  0  0  0  0  0  0
    4.7483    3.7195   -3.5962 C   0  0  0  0  0  0  0  0  0  0  0  0
    5.3486    4.1541   -2.4361 C   0  0  0  0  0  0  0  0  0  0  0  0
    4.6418    4.1188   -1.2292 C   0  0  0  0  0  0  0  0  0  0  0  0
    5.2773    4.5814    0.0157 C   0  0  0  0  0  0  0  0  0  0  0  0
    4.7079    4.4346    1.0798 O   0  0  0  0  0  0  0  0  0  0  0  0
    6.6101    5.2258   -0.0283 C   0  0  0  0  0  0  0  0  0  0  0  0
    7.2701    5.5307    1.1610 C   0  0  0  0  0  0  0  0  0  0  0  0
    8.5165    6.1334    1.1035 C   0  0  0  0  0  0  0  0  0  0  0  0
    9.0603    6.4106   -0.1413 C   0  0  0  0  0  0  0  0  0  0  0  0
    8.3480    6.0799   -1.2830 C   0  0  0  0  0  0  0  0  0  0  0  0
    7.1688    5.5033   -1.2002 N   0  0  0  0  0  0  0  0  0  0  0  0
    3.7656   13.1756   -0.9887 H   0  0  0  0  0  0  0  0  0  0  0  0
    5.1690   12.2262   -0.4434 H   0  0  0  0  0  0  0  0  0  0  0  0
    3.5866   11.4375   -0.6492 H   0  0  0  0  0  0  0  0  0  0  0  0
    2.5642   13.5960    5.4945 H   0  0  0  0  0  0  0  0  0  0  0  0
    3.3948   14.6426    7.5596 H   0  0  0  0  0  0  0  0  0  0  0  0
    5.6267   15.6760    7.6088 H   0  0  0  0  0  0  0  0  0  0  0  0
    7.0445   15.6607    5.5986 H   0  0  0  0  0  0  0  0  0  0  0  0
    6.2369   14.6104    3.5263 H   0  0  0  0  0  0  0  0  0  0  0  0
    1.3739   11.8383    0.0522 H   0  0  0  0  0  0  0  0  0  0  0  0
    0.5096   11.9557    1.6038 H   0  0  0  0  0  0  0  0  0  0  0  0
    1.6598    9.9081    2.3995 H   0  0  0  0  0  0  0  0  0  0  0  0
    2.5241    9.7907    0.8479 H   0  0  0  0  0  0  0  0  0  0  0  0
   -1.3752    7.8361   -0.1552 H   0  0  0  0  0  0  0  0  0  0  0  0
   -1.3699    5.3818    0.0327 H   0  0  0  0  0  0  0  0  0  0  0  0
    2.3538    5.5412    2.1064 H   0  0  0  0  0  0  0  0  0  0  0  0
    2.3611    7.9951    1.9135 H   0  0  0  0  0  0  0  0  0  0  0  0
   -0.5318    3.4485    1.2348 H   0  0  0  0  0  0  0  0  0  0  0  0
    1.0244    3.5147    2.0962 H   0  0  0  0  0  0  0  0  0  0  0  0
    3.0447    3.8262    0.8119 H   0  0  0  0  0  0  0  0  0  0  0  0
    1.7226    2.8251   -2.3877 H   0  0  0  0  0  0  0  0  0  0  0  0
    2.9838    2.9070   -4.4925 H   0  0  0  0  0  0  0  0  0  0  0  0
    5.2955    3.7476   -4.5270 H   0  0  0  0  0  0  0  0  0  0  0  0
    6.3637    4.5222   -2.4575 H   0  0  0  0  0  0  0  0  0  0  0  0
    6.8167    5.3001    2.1137 H   0  0  0  0  0  0  0  0  0  0  0  0
    9.0520    6.3819    2.0079 H   0  0  0  0  0  0  0  0  0  0  0  0
   10.0300    6.8796   -0.2204 H   0  0  0  0  0  0  0  0  0  0  0  0
    8.7690    6.2942   -2.2542 H   0  0  0  0  0  0  0  0  0  0  0  0
   -0.1173    1.1169    0.0271 O   0  5  0  0  0  0  0  0  0  0  0  0
  1  2  1  0  0  0  0
  1 42  1  0  0  0  0
  1 43  1  0  0  0  0
  1 44  1  0  0  0  0
  2  6  1  0  0  0  0
  2  3  2  0  0  0  0
  3  4  1  0  0  0  0
  3 13  1  0  0  0  0
  4  5  2  0  0  0  0
  5  6  1  0  0  0  0
  5  7  1  0  0  0  0
  7 12  2  0  0  0  0
  7  8  1  0  0  0  0
  8  9  2  0  0  0  0
  8 45  1  0  0  0  0
  9 10  1  0  0  0  0
  9 46  1  0  0  0  0
 10 11  2  0  0  0  0
 10 47  1  0  0  0  0
 11 12  1  0  0  0  0
 11 48  1  0  0  0  0
 12 49  1  0  0  0  0
 13 14  1  0  0  0  0
 13 50  1  0  0  0  0
 13 51  1  0  0  0  0
 14 15  1  0  0  0  0
 14 52  1  0  0  0  0
 14 53  1  0  0  0  0
 15 16  1  0  0  0  0
 16 21  2  0  0  0  0
 16 17  1  0  0  0  0
 17 18  2  0  0  0  0
 17 54  1  0  0  0  0
 18 19  1  0  0  0  0
 18 55  1  0  0  0  0
 19 20  2  0  0  0  0
 19 22  1  0  0  0  0
 20 21  1  0  0  0  0
 20 56  1  0  0  0  0
 21 57  1  0  0  0  0
 22 23  1  0  0  0  0
 22 58  1  0  0  0  0
 22 59  1  0  0  0  0
 23 24  1  0  0  0  0
 23 25  1  0  0  0  0
 23 27  1  0  0  0  0
 25 26  2  0  0  0  0
 25 69  1  0  0  0  0
 27 28  1  0  0  0  0
 27 60  1  0  0  0  0
 28 33  2  0  0  0  0
 28 29  1  0  0  0  0
 29 30  2  0  0  0  0
 29 61  1  0  0  0  0
 30 31  1  0  0  0  0
 30 62  1  0  0  0  0
 31 32  2  0  0  0  0
 31 63  1  0  0  0  0
 32 33  1  0  0  0  0
 32 64  1  0  0  0  0
 33 34  1  0  0  0  0
 34 35  2  0  0  0  0
 34 36  1  0  0  0  0
 36 41  2  0  0  0  0
 36 37  1  0  0  0  0
 37 38  2  0  0  0  0
 37 65  1  0  0  0  0
 38 39  1  0  0  0  0
 38 66  1  0  0  0  0
 39 40  2  0  0  0  0
 39 67  1  0  0  0  0
 40 41  1  0  0  0  0
 40 68  1  0  0  0  0
M  CHG  1  69  -1
M  END
$$$$
ZINC03832274
  -OEChem-08230709403D

 29 30  0     0  0  0  0  0  0999 V2000
   -1.1906    1.7206   -0.1197 C   0  0  0  0  0  0  0  0  0  0  0  0
    0.0167    1.0695   -0.2890 C   0  0  0  0  0  0  0  0  0  0  0  0
    1.1973    1.7865   -0.3020 C   0  0  0  0  0  0  0  0  0  0  0  0
    1.1731    3.1741   -0.1383 C   0  0  0  0  0  0  0  0  0  0  0  0
   -0.0461    3.8295    0.0378 C   0  0  0  0  0  0  0  0  0  0  0  0
   -1.2246    3.0999    0.0492 C   0  0  0  0  0  0  0  0  0  0  0  0
   -2.4483    3.7521    0.2253 N   0  0  0  0  0  0  0  0  0  0  0  0
   -2.4838    5.1578    0.3920 O   0  0  0  0  0  0  0  0  0  0  0  0
   -3.6524    3.0072    0.2369 O   0  0  0  0  0  0  0  0  0  0  0  0
    2.4338    3.9444   -0.1511 C   0  0  0  0  0  0  0  0  0  0  0  0
    3.4948    3.3711   -0.3043 O   0  0  0  0  0  0  0  0  0  0  0  0
    2.4076    5.2826    0.0070 N   0  0  0  0  0  0  0  0  0  0  0  0
    3.6014    5.9967    0.1052 C   0  0  0  0  0  0  0  0  0  0  0  0
    4.7266    5.4301    0.7025 C   0  0  0  0  0  0  0  0  0  0  0  0
    5.8901    6.1676    0.7748 C   0  0  0  0  0  0  0  0  0  0  0  0
    5.9426    7.3969    0.2976 N   0  0  0  0  0  0  0  0  0  0  0  0
    4.8979    7.9700   -0.2698 C   0  0  0  0  0  0  0  0  0  0  0  0
    3.6991    7.2977   -0.3863 C   0  0  0  0  0  0  0  0  0  0  0  0
    2.7104    0.9641   -0.5210 Cl  0  0  0  0  0  0  0  0  0  0  0  0
   -2.1107    1.1550   -0.1146 H   0  0  0  0  0  0  0  0  0  0  0  0
    0.0368   -0.0028   -0.4160 H   0  0  0  0  0  0  0  0  0  0  0  0
   -0.0714    4.9017    0.1645 H   0  0  0  0  0  0  0  0  0  0  0  0
   -3.3738    5.5180    0.5068 H   0  0  0  0  0  0  0  0  0  0  0  0
   -4.4462    3.5446    0.3645 H   0  0  0  0  0  0  0  0  0  0  0  0
    1.5583    5.7490    0.0525 H   0  0  0  0  0  0  0  0  0  0  0  0
    4.6890    4.4264    1.0994 H   0  0  0  0  0  0  0  0  0  0  0  0
    6.7678    5.7353    1.2321 H   0  0  0  0  0  0  0  0  0  0  0  0
    4.9826    8.9783   -0.6474 H   0  0  0  0  0  0  0  0  0  0  0  0
    2.8479    7.7726   -0.8514 H   0  0  0  0  0  0  0  0  0  0  0  0
  1  6  2  0  0  0  0
  1  2  1  0  0  0  0
  1 20  1  0  0  0  0
  2  3  2  0  0  0  0
  2 21  1  0  0  0  0
  3  4  1  0  0  0  0
  3 19  1  0  0  0  0
  4  5  2  0  0  0  0
  4 10  1  0  0  0  0
  5  6  1  0  0  0  0
  5 22  1  0  0  0  0
  6  7  1  0  0  0  0
  7  8  1  0  0  0  0
  7  9  1  0  0  0  0
  8 23  1  0  0  0  0
  9 24  1  0  0  0  0
 10 11  2  0  0  0  0
 10 12  1  0  0  0  0
 12 13  1  0  0  0  0
 12 25  1  0  0  0  0
 13 18  2  0  0  0  0
 13 14  1  0  0  0  0
 14 15  2  0  0  0  0
 14 26  1  0  0  0  0
 15 16  1  0  0  0  0
 15 27  1  0  0  0  0
 16 17  2  0  0  0  0
 17 18  1  0  0  0  0
 17 28  1  0  0  0  0
 18 29  1  0  0  0  0
M  END
$$$$
ZINC03832275
  -OEChem-08230709403D

 70 74  0     1  0  0  0  0  0999 V2000
    5.3098    4.0281    8.2557 C   0  0  0  0  0  0  0  0  0  0  0  0
    3.8479    3.7116    8.4393 C   0  0  0  0  0  0  0  0  0  0  0  0
    3.1665    2.5670    8.1669 C   0  0  0  0  0  0  0  0  0  0  0  0
    1.8790    2.4987    8.4109 N   0  0  0  0  0  0  0  0  0  0  0  0
    1.2186    3.5308    8.9166 C   0  0  0  0  0  0  0  0  0  0  0  0
    2.5281    4.7380    9.0743 S   0  0  0  0  0  0  0  0  0  0  0  0
   -0.2151    3.6513    9.2584 C   0  0  0  0  0  0  0  0  0  0  0  0
   -1.0784    2.5753    9.0482 C   0  0  0  0  0  0  0  0  0  0  0  0
   -2.4139    2.6925    9.3741 C   0  0  0  0  0  0  0  0  0  0  0  0
   -2.8999    3.8774    9.8975 C   0  0  0  0  0  0  0  0  0  0  0  0
   -2.0503    4.9497   10.1034 C   0  0  0  0  0  0  0  0  0  0  0  0
   -0.7116    4.8435    9.7870 C   0  0  0  0  0  0  0  0  0  0  0  0
    3.8899    1.3767    7.5916 C   0  0  0  0  0  0  0  0  0  0  0  0
    3.8574    1.4498    6.0637 C   0  0  0  0  0  0  0  0  0  0  0  0
    4.5434    0.3211    5.5181 O   0  0  0  0  0  0  0  0  0  0  0  0
    4.6067    0.2333    4.1635 C   0  0  0  0  0  0  0  0  0  0  0  0
    5.2575   -0.8365    3.5662 C   0  0  0  0  0  0  0  0  0  0  0  0
    5.3201   -0.9238    2.1890 C   0  0  0  0  0  0  0  0  0  0  0  0
    4.7350    0.0540    1.4058 C   0  0  0  0  0  0  0  0  0  0  0  0
    4.0907    1.1241    1.9987 C   0  0  0  0  0  0  0  0  0  0  0  0
    4.0204    1.2130    3.3755 C   0  0  0  0  0  0  0  0  0  0  0  0
    4.8048   -0.0437   -0.0964 C   0  0  0  0  0  0  0  0  0  0  0  0
    3.5939   -0.8227   -0.6137 C   0  0  2  0  0  0  0  0  0  0  0  0
    3.5460   -1.7918   -0.1169 H   0  0  0  0  0  0  0  0  0  0  0  0
    3.7257   -1.0267   -2.1010 C   0  0  0  0  0  0  0  0  0  0  0  0
    2.8842   -0.5868   -2.8480 O   0  0  0  0  0  0  0  0  0  0  0  0
    2.3705   -0.0681   -0.3308 N   0  0  0  0  0  0  0  0  0  0  0  0
    1.1571   -0.7318   -0.2130 C   0  0  0  0  0  0  0  0  0  0  0  0
    1.0782   -2.0947   -0.4725 C   0  0  0  0  0  0  0  0  0  0  0  0
   -0.1300   -2.7509   -0.3603 C   0  0  0  0  0  0  0  0  0  0  0  0
   -1.2721   -2.0608    0.0168 C   0  0  0  0  0  0  0  0  0  0  0  0
   -1.2138   -0.7112    0.2833 C   0  0  0  0  0  0  0  0  0  0  0  0
    0.0031   -0.0306    0.1743 C   0  0  0  0  0  0  0  0  0  0  0  0
    0.0731    1.4132    0.4580 C   0  0  0  0  0  0  0  0  0  0  0  0
    0.0489    1.8089    1.6076 O   0  0  0  0  0  0  0  0  0  0  0  0
    0.1787    2.3807   -0.6545 C   0  0  0  0  0  0  0  0  0  0  0  0
    0.1643    1.9329   -1.9771 C   0  0  0  0  0  0  0  0  0  0  0  0
    0.2589    2.8416   -3.0105 C   0  0  0  0  0  0  0  0  0  0  0  0
    0.3777    4.1933   -2.7388 C   0  0  0  0  0  0  0  0  0  0  0  0
    0.3979    4.6434   -1.4304 C   0  0  0  0  0  0  0  0  0  0  0  0
    0.2992    3.7461   -0.3875 C   0  0  0  0  0  0  0  0  0  0  0  0
    5.4692    4.4454    7.2615 H   0  0  0  0  0  0  0  0  0  0  0  0
    5.6220    4.7524    9.0081 H   0  0  0  0  0  0  0  0  0  0  0  0
    5.8957    3.1154    8.3648 H   0  0  0  0  0  0  0  0  0  0  0  0
   -0.7011    1.6515    8.6352 H   0  0  0  0  0  0  0  0  0  0  0  0
   -3.0822    1.8590    9.2160 H   0  0  0  0  0  0  0  0  0  0  0  0
   -3.9471    3.9655   10.1467 H   0  0  0  0  0  0  0  0  0  0  0  0
   -2.4359    5.8719   10.5123 H   0  0  0  0  0  0  0  0  0  0  0  0
   -0.0493    5.6812    9.9486 H   0  0  0  0  0  0  0  0  0  0  0  0
    3.4013    0.4601    7.9220 H   0  0  0  0  0  0  0  0  0  0  0  0
    4.9249    1.3804    7.9336 H   0  0  0  0  0  0  0  0  0  0  0  0
    4.3460    2.3664    5.7333 H   0  0  0  0  0  0  0  0  0  0  0  0
    2.8225    1.4461    5.7217 H   0  0  0  0  0  0  0  0  0  0  0  0
    5.7144   -1.6007    4.1775 H   0  0  0  0  0  0  0  0  0  0  0  0
    5.8263   -1.7566    1.7235 H   0  0  0  0  0  0  0  0  0  0  0  0
    3.6385    1.8891    1.3848 H   0  0  0  0  0  0  0  0  0  0  0  0
    3.5132    2.0468    3.8380 H   0  0  0  0  0  0  0  0  0  0  0  0
    5.7199   -0.5610   -0.3847 H   0  0  0  0  0  0  0  0  0  0  0  0
    4.8029    0.9581   -0.5261 H   0  0  0  0  0  0  0  0  0  0  0  0
    2.4084    0.8955   -0.2258 H   0  0  0  0  0  0  0  0  0  0  0  0
    1.9629   -2.6398   -0.7667 H   0  0  0  0  0  0  0  0  0  0  0  0
   -0.1867   -3.8094   -0.5671 H   0  0  0  0  0  0  0  0  0  0  0  0
   -2.2127   -2.5848    0.1014 H   0  0  0  0  0  0  0  0  0  0  0  0
   -2.1066   -0.1790    0.5765 H   0  0  0  0  0  0  0  0  0  0  0  0
    0.0758    0.8779   -2.1905 H   0  0  0  0  0  0  0  0  0  0  0  0
    0.2441    2.4971   -4.0340 H   0  0  0  0  0  0  0  0  0  0  0  0
    0.4552    4.9002   -3.5517 H   0  0  0  0  0  0  0  0  0  0  0  0
    0.4908    5.6997   -1.2254 H   0  0  0  0  0  0  0  0  0  0  0  0
    0.3155    4.0986    0.6332 H   0  0  0  0  0  0  0  0  0  0  0  0
    4.7781   -1.6971   -2.5958 O   0  5  0  0  0  0  0  0  0  0  0  0
  1  2  1  0  0  0  0
  1 42  1  0  0  0  0
  1 43  1  0  0  0  0
  1 44  1  0  0  0  0
  2  6  1  0  0  0  0
  2  3  2  0  0  0  0
  3  4  1  0  0  0  0
  3 13  1  0  0  0  0
  4  5  2  0  0  0  0
  5  6  1  0  0  0  0
  5  7  1  0  0  0  0
  7 12  2  0  0  0  0
  7  8  1  0  0  0  0
  8  9  2  0  0  0  0
  8 45  1  0  0  0  0
  9 10  1  0  0  0  0
  9 46  1  0  0  0  0
 10 11  2  0  0  0  0
 10 47  1  0  0  0  0
 11 12  1  0  0  0  0
 11 48  1  0  0  0  0
 12 49  1  0  0  0  0
 13 14  1  0  0  0  0
 13 50  1  0  0  0  0
 13 51  1  0  0  0  0
 14 15  1  0  0  0  0
 14 52  1  0  0  0  0
 14 53  1  0  0  0  0
 15 16  1  0  0  0  0
 16 21  2  0  0  0  0
 16 17  1  0  0  0  0
 17 18  2  0  0  0  0
 17 54  1  0  0  0  0
 18 19  1  0  0  0  0
 18 55  1  0  0  0  0
 19 20  2  0  0  0  0
 19 22  1  0  0  0  0
 20 21  1  0  0  0  0
 20 56  1  0  0  0  0
 21 57  1  0  0  0  0
 22 23  1  0  0  0  0
 22 58  1  0  0  0  0
 22 59  1  0  0  0  0
 23 24  1  0  0  0  0
 23 25  1  0  0  0  0
 23 27  1  0  0  0  0
 25 26  2  0  0  0  0
 25 70  1  0  0  0  0
 27 28  1  0  0  0  0
 27 60  1  0  0  0  0
 28 33  2  0  0  0  0
 28 29  1  0  0  0  0
 29 30  2  0  0  0  0
 29 61  1  0  0  0  0
 30 31  1  0  0  0  0
 30 62  1  0  0  0  0
 31 32  2  0  0  0  0
 31 63  1  0  0  0  0
 32 33  1  0  0  0  0
 32 64  1  0  0  0  0
 33 34  1  0  0  0  0
 34 35  2  0  0  0  0
 34 36  1  0  0  0  0
 36 41  2  0  0  0  0
 36 37  1  0  0  0  0
 37 38  2  0  0  0  0
 37 65  1  0  0  0  0
 38 39  1  0  0  0  0
 38 66  1  0  0  0  0
 39 40  2  0  0  0  0
 39 67  1  0  0  0  0
 40 41  1  0  0  0  0
 40 68  1  0  0  0  0
 41 69  1  0  0  0  0
M  CHG  1  70  -1
M  END
$$$$
ZINC03832276
  -OEChem-08230709403D

 76 80  0     1  0  0  0  0  0999 V2000
    9.0140    2.0503    2.7760 C   0  0  0  0  0  0  0  0  0  0  0  0
    8.7227    3.4693    3.1913 C   0  0  0  0  0  0  0  0  0  0  0  0
    8.0233    4.3787    2.4883 C   0  0  0  0  0  0  0  0  0  0  0  0
    7.9972    5.5162    3.1990 N   0  0  0  0  0  0  0  0  0  0  0  0
    8.6523    5.3257    4.3199 C   0  0  0  0  0  0  0  0  0  0  0  0
    9.1148    4.0635    4.3357 O   0  0  0  0  0  0  0  0  0  0  0  0
    8.8532    6.3319    5.3841 C   0  0  0  0  0  0  0  0  0  0  0  0
    8.3234    7.6155    5.2439 C   0  0  0  0  0  0  0  0  0  0  0  0
    8.5095    8.5481    6.2434 C   0  0  0  0  0  0  0  0  0  0  0  0
    9.2293    8.2168    7.3776 C   0  0  0  0  0  0  0  0  0  0  0  0
    9.7620    6.9479    7.5201 C   0  0  0  0  0  0  0  0  0  0  0  0
    9.5783    6.0042    6.5307 C   0  0  0  0  0  0  0  0  0  0  0  0
    7.3878    4.1602    1.1394 C   0  0  0  0  0  0  0  0  0  0  0  0
    5.9578    3.6491    1.3262 C   0  0  0  0  0  0  0  0  0  0  0  0
    5.3552    3.4419    0.0471 O   0  0  0  0  0  0  0  0  0  0  0  0
    4.0751    2.9855    0.0348 C   0  0  0  0  0  0  0  0  0  0  0  0
    3.4286    2.7622   -1.1722 C   0  0  0  0  0  0  0  0  0  0  0  0
    2.1276    2.2979   -1.1820 C   0  0  0  0  0  0  0  0  0  0  0  0
    1.4698    2.0556    0.0098 C   0  0  0  0  0  0  0  0  0  0  0  0
    2.1100    2.2827    1.2141 C   0  0  0  0  0  0  0  0  0  0  0  0
    3.4129    2.7416    1.2293 C   0  0  0  0  0  0  0  0  0  0  0  0
    0.0506    1.5490   -0.0038 C   0  0  0  0  0  0  0  0  0  0  0  0
    0.0553    0.0191   -0.0169 C   0  0  2  0  0  0  0  0  0  0  0  0
    0.6513   -0.3353   -0.8579 H   0  0  0  0  0  0  0  0  0  0  0  0
   -1.3578   -0.4864   -0.1543 C   0  0  0  0  0  0  0  0  0  0  0  0
   -1.8340   -1.1899    0.7049 O   0  0  0  0  0  0  0  0  0  0  0  0
    0.6323   -0.4782    1.2345 N   0  0  0  0  0  0  0  0  0  0  0  0
    1.2188   -1.7344    1.2767 C   0  0  0  0  0  0  0  0  0  0  0  0
    1.1610   -2.5704    0.1682 C   0  0  0  0  0  0  0  0  0  0  0  0
    1.7492   -3.8173    0.2110 C   0  0  0  0  0  0  0  0  0  0  0  0
    2.3930   -4.2527    1.3598 C   0  0  0  0  0  0  0  0  0  0  0  0
    2.4577   -3.4433    2.4710 C   0  0  0  0  0  0  0  0  0  0  0  0
    1.8707   -2.1719    2.4438 C   0  0  0  0  0  0  0  0  0  0  0  0
    1.9356   -1.3030    3.6234 C   0  0  0  0  0  0  0  0  0  0  0  0
    1.3380   -0.2474    3.6329 O   0  0  0  0  0  0  0  0  0  0  0  0
    2.7448   -1.7215    4.8239 C   0  0  0  0  0  0  0  0  0  0  0  0
    1.8974   -2.6275    5.7195 C   0  0  0  0  0  0  0  0  0  0  0  0
    2.7189   -3.0524    6.9383 C   0  0  0  0  0  0  0  0  0  0  0  0
    3.1438   -1.8108    7.7250 C   0  0  0  0  0  0  0  0  0  0  0  0
    3.9912   -0.9049    6.8294 C   0  0  0  0  0  0  0  0  0  0  0  0
    3.1697   -0.4800    5.6106 C   0  0  0  0  0  0  0  0  0  0  0  0
    9.9498    2.0198    2.2179 H   0  0  0  0  0  0  0  0  0  0  0  0
    9.0993    1.4224    3.6629 H   0  0  0  0  0  0  0  0  0  0  0  0
    8.2036    1.6822    2.1469 H   0  0  0  0  0  0  0  0  0  0  0  0
    7.7651    7.8767    4.3571 H   0  0  0  0  0  0  0  0  0  0  0  0
    8.0963    9.5404    6.1382 H   0  0  0  0  0  0  0  0  0  0  0  0
    9.3757    8.9518    8.1552 H   0  0  0  0  0  0  0  0  0  0  0  0
   10.3226    6.6955    8.4081 H   0  0  0  0  0  0  0  0  0  0  0  0
    9.9943    5.0139    6.6434 H   0  0  0  0  0  0  0  0  0  0  0  0
    7.9662    3.4249    0.5800 H   0  0  0  0  0  0  0  0  0  0  0  0
    7.3684    5.1015    0.5901 H   0  0  0  0  0  0  0  0  0  0  0  0
    5.3793    4.3843    1.8855 H   0  0  0  0  0  0  0  0  0  0  0  0
    5.9772    2.7078    1.8754 H   0  0  0  0  0  0  0  0  0  0  0  0
    3.9421    2.9510   -2.1033 H   0  0  0  0  0  0  0  0  0  0  0  0
    1.6240    2.1236   -2.1213 H   0  0  0  0  0  0  0  0  0  0  0  0
    1.5925    2.0972    2.1437 H   0  0  0  0  0  0  0  0  0  0  0  0
    3.9141    2.9146    2.1702 H   0  0  0  0  0  0  0  0  0  0  0  0
   -0.4585    1.9184   -0.8940 H   0  0  0  0  0  0  0  0  0  0  0  0
   -0.4702    1.9032    0.8859 H   0  0  0  0  0  0  0  0  0  0  0  0
    0.6041    0.0710    2.0335 H   0  0  0  0  0  0  0  0  0  0  0  0
    0.6580   -2.2419   -0.7293 H   0  0  0  0  0  0  0  0  0  0  0  0
    1.7045   -4.4610   -0.6550 H   0  0  0  0  0  0  0  0  0  0  0  0
    2.8459   -5.2329    1.3826 H   0  0  0  0  0  0  0  0  0  0  0  0
    2.9607   -3.7878    3.3625 H   0  0  0  0  0  0  0  0  0  0  0  0
    3.5579   -2.2186    4.5210 H   0  0  0  0  0  0  0  0  0  0  0  0
    1.0111   -2.0856    6.0497 H   0  0  0  0  0  0  0  0  0  0  0  0
    1.5947   -3.5120    5.1591 H   0  0  0  0  0  0  0  0  0  0  0  0
    3.6051   -3.5942    6.6081 H   0  0  0  0  0  0  0  0  0  0  0  0
    2.1151   -3.6978    7.5763 H   0  0  0  0  0  0  0  0  0  0  0  0
    3.7290   -2.1135    8.5933 H   0  0  0  0  0  0  0  0  0  0  0  0
    2.2575   -1.2689    8.0552 H   0  0  0  0  0  0  0  0  0  0  0  0
    4.8775   -1.4467    6.4992 H   0  0  0  0  0  0  0  0  0  0  0  0
    4.2939   -0.0203    7.3898 H   0  0  0  0  0  0  0  0  0  0  0  0
    3.7734    0.1654    4.9726 H   0  0  0  0  0  0  0  0  0  0  0  0
    2.2834    0.0619    5.9408 H   0  0  0  0  0  0  0  0  0  0  0  0
   -2.0873   -0.1551   -1.2312 O   0  5  0  0  0  0  0  0  0  0  0  0
  1  2  1  0  0  0  0
  1 42  1  0  0  0  0
  1 43  1  0  0  0  0
  1 44  1  0  0  0  0
  2  6  1  0  0  0  0
  2  3  2  0  0  0  0
  3  4  1  0  0  0  0
  3 13  1  0  0  0  0
  4  5  2  0  0  0  0
  5  6  1  0  0  0  0
  5  7  1  0  0  0  0
  7 12  2  0  0  0  0
  7  8  1  0  0  0  0
  8  9  2  0  0  0  0
  8 45  1  0  0  0  0
  9 10  1  0  0  0  0
  9 46  1  0  0  0  0
 10 11  2  0  0  0  0
 10 47  1  0  0  0  0
 11 12  1  0  0  0  0
 11 48  1  0  0  0  0
 12 49  1  0  0  0  0
 13 14  1  0  0  0  0
 13 50  1  0  0  0  0
 13 51  1  0  0  0  0
 14 15  1  0  0  0  0
 14 52  1  0  0  0  0
 14 53  1  0  0  0  0
 15 16  1  0  0  0  0
 16 21  2  0  0  0  0
 16 17  1  0  0  0  0
 17 18  2  0  0  0  0
 17 54  1  0  0  0  0
 18 19  1  0  0  0  0
 18 55  1  0  0  0  0
 19 20  2  0  0  0  0
 19 22  1  0  0  0  0
 20 21  1  0  0  0  0
 20 56  1  0  0  0  0
 21 57  1  0  0  0  0
 22 23  1  0  0  0  0
 22 58  1  0  0  0  0
 22 59  1  0  0  0  0
 23 24  1  0  0  0  0
 23 25  1  0  0  0  0
 23 27  1  0  0  0  0
 25 26  2  0  0  0  0
 25 76  1  0  0  0  0
 27 28  1  0  0  0  0
 27 60  1  0  0  0  0
 28 33  2  0  0  0  0
 28 29  1  0  0  0  0
 29 30  2  0  0  0  0
 29 61  1  0  0  0  0
 30 31  1  0  0  0  0
 30 62  1  0  0  0  0
 31 32  2  0  0  0  0
 31 63  1  0  0  0  0
 32 33  1  0  0  0  0
 32 64  1  0  0  0  0
 33 34  1  0  0  0  0
 34 35  2  0  0  0  0
 34 36  1  0  0  0  0
 36 41  1  0  0  0  0
 36 37  1  0  0  0  0
 36 65  1  0  0  0  0
 37 38  1  0  0  0  0
 37 66  1  0  0  0  0
 37 67  1  0  0  0  0
 38 39  1  0  0  0  0
 38 68  1  0  0  0  0
 38 69  1  0  0  0  0
 39 40  1  0  0  0  0
 39 70  1  0  0  0  0
 39 71  1  0  0  0  0
 40 41  1  0  0  0  0
 40 72  1  0  0  0  0
 40 73  1  0  0  0  0
 41 74  1  0  0  0  0
 41 75  1  0  0  0  0
M  CHG  1  76  -1
M  END
$$$$
ZINC03832277
  -OEChem-08230709403D

 71 75  0     1  0  0  0  0  0999 V2000
    0.3622    4.2731   10.3790 C   0  0  0  0  0  0  0  0  0  0  0  0
    1.4439    3.8743    9.4085 C   0  0  0  0  0  0  0  0  0  0  0  0
    1.8461    2.6112    9.1365 C   0  0  0  0  0  0  0  0  0  0  0  0
    2.8687    2.6803    8.1840 C   0  0  0  0  0  0  0  0  0  0  0  0
    3.0778    3.9403    7.8981 N   0  0  0  0  0  0  0  0  0  0  0  0
    2.1873    4.7143    8.6534 N   0  0  0  0  0  0  0  0  0  0  0  0
    2.0884    6.1125    8.6340 C   0  0  0  0  0  0  0  0  0  0  0  0
    2.1615    6.7984    7.4291 C   0  0  0  0  0  0  0  0  0  0  0  0
    2.0575    8.1756    7.4126 C   0  0  0  0  0  0  0  0  0  0  0  0
    1.8930    8.8721    8.5957 C   0  0  0  0  0  0  0  0  0  0  0  0
    1.8256    8.1922    9.7979 C   0  0  0  0  0  0  0  0  0  0  0  0
    1.9228    6.8146    9.8202 C   0  0  0  0  0  0  0  0  0  0  0  0
    3.6068    1.5065    7.5938 C   0  0  0  0  0  0  0  0  0  0  0  0
    3.5083    1.5571    6.0678 C   0  0  0  0  0  0  0  0  0  0  0  0
    4.2082    0.4441    5.5081 O   0  0  0  0  0  0  0  0  0  0  0  0
    4.2181    0.3395    4.1532 C   0  0  0  0  0  0  0  0  0  0  0  0
    4.8787   -0.7167    3.5426 C   0  0  0  0  0  0  0  0  0  0  0  0
    4.8869   -0.8210    2.1651 C   0  0  0  0  0  0  0  0  0  0  0  0
    4.2374    0.1260    1.3951 C   0  0  0  0  0  0  0  0  0  0  0  0
    3.5830    1.1826    2.0009 C   0  0  0  0  0  0  0  0  0  0  0  0
    3.5671    1.2884    3.3783 C   0  0  0  0  0  0  0  0  0  0  0  0
    4.2479    0.0098   -0.1074 C   0  0  0  0  0  0  0  0  0  0  0  0
    3.0431   -0.8157   -0.5635 C   0  0  2  0  0  0  0  0  0  0  0  0
    3.0483   -1.7788   -0.0530 H   0  0  0  0  0  0  0  0  0  0  0  0
    3.1197   -1.0360   -2.0523 C   0  0  0  0  0  0  0  0  0  0  0  0
    2.2336   -0.6344   -2.7688 O   0  0  0  0  0  0  0  0  0  0  0  0
    1.8081   -0.0977   -0.2390 N   0  0  0  0  0  0  0  0  0  0  0  0
    0.6234   -0.7992   -0.0619 C   0  0  0  0  0  0  0  0  0  0  0  0
    0.6211   -2.1881   -0.1032 C   0  0  0  0  0  0  0  0  0  0  0  0
   -0.5585   -2.8828    0.0674 C   0  0  0  0  0  0  0  0  0  0  0  0
   -1.7479   -2.2046    0.2865 C   0  0  0  0  0  0  0  0  0  0  0  0
   -1.7659   -0.8287    0.3361 C   0  0  0  0  0  0  0  0  0  0  0  0
   -0.5789   -0.1091    0.1652 C   0  0  0  0  0  0  0  0  0  0  0  0
   -0.5904    1.3631    0.2171 C   0  0  0  0  0  0  0  0  0  0  0  0
   -0.6800    1.9331    1.2875 O   0  0  0  0  0  0  0  0  0  0  0  0
   -0.4870    2.1474   -1.0315 C   0  0  0  0  0  0  0  0  0  0  0  0
   -0.4956    1.5003   -2.2690 C   0  0  0  0  0  0  0  0  0  0  0  0
   -0.4031    2.2387   -3.4304 C   0  0  0  0  0  0  0  0  0  0  0  0
   -0.2922    3.6168   -3.3709 C   0  0  0  0  0  0  0  0  0  0  0  0
   -0.2777    4.2640   -2.1478 C   0  0  0  0  0  0  0  0  0  0  0  0
   -0.3743    3.5383   -0.9788 C   0  0  0  0  0  0  0  0  0  0  0  0
    0.7837    4.3502   11.3813 H   0  0  0  0  0  0  0  0  0  0  0  0
   -0.0529    5.2369   10.0844 H   0  0  0  0  0  0  0  0  0  0  0  0
   -0.4264    3.5208   10.3734 H   0  0  0  0  0  0  0  0  0  0  0  0
    1.4481    1.7090    9.5770 H   0  0  0  0  0  0  0  0  0  0  0  0
    2.2948    6.2553    6.5051 H   0  0  0  0  0  0  0  0  0  0  0  0
    2.1091    8.7093    6.4751 H   0  0  0  0  0  0  0  0  0  0  0  0
    1.8168    9.9493    8.5808 H   0  0  0  0  0  0  0  0  0  0  0  0
    1.6971    8.7390   10.7204 H   0  0  0  0  0  0  0  0  0  0  0  0
    1.8697    6.2841   10.7595 H   0  0  0  0  0  0  0  0  0  0  0  0
    3.1632    0.5790    7.9559 H   0  0  0  0  0  0  0  0  0  0  0  0
    4.6544    1.5489    7.8919 H   0  0  0  0  0  0  0  0  0  0  0  0
    3.9519    2.4846    5.7056 H   0  0  0  0  0  0  0  0  0  0  0  0
    2.4608    1.5148    5.7697 H   0  0  0  0  0  0  0  0  0  0  0  0
    5.3859   -1.4568    4.1437 H   0  0  0  0  0  0  0  0  0  0  0  0
    5.4008   -1.6432    1.6893 H   0  0  0  0  0  0  0  0  0  0  0  0
    3.0804    1.9237    1.3971 H   0  0  0  0  0  0  0  0  0  0  0  0
    3.0521    2.1114    3.8512 H   0  0  0  0  0  0  0  0  0  0  0  0
    5.1669   -0.4813   -0.4274 H   0  0  0  0  0  0  0  0  0  0  0  0
    4.1947    1.0048   -0.5492 H   0  0  0  0  0  0  0  0  0  0  0  0
    1.8182    0.8680   -0.1478 H   0  0  0  0  0  0  0  0  0  0  0  0
    1.5431   -2.7242   -0.2734 H   0  0  0  0  0  0  0  0  0  0  0  0
   -0.5554   -3.9621    0.0303 H   0  0  0  0  0  0  0  0  0  0  0  0
   -2.6655   -2.7587    0.4187 H   0  0  0  0  0  0  0  0  0  0  0  0
   -2.6953   -0.3059    0.5071 H   0  0  0  0  0  0  0  0  0  0  0  0
   -0.5780    0.4245   -2.3167 H   0  0  0  0  0  0  0  0  0  0  0  0
   -0.4134    1.7399   -4.3882 H   0  0  0  0  0  0  0  0  0  0  0  0
   -0.2162    4.1898   -4.2832 H   0  0  0  0  0  0  0  0  0  0  0  0
   -0.1909    5.3398   -2.1085 H   0  0  0  0  0  0  0  0  0  0  0  0
   -0.3626    4.0446   -0.0249 H   0  0  0  0  0  0  0  0  0  0  0  0
    4.1723   -1.6783   -2.5825 O   0  5  0  0  0  0  0  0  0  0  0  0
  1  2  1  0  0  0  0
  1 42  1  0  0  0  0
  1 43  1  0  0  0  0
  1 44  1  0  0  0  0
  2  6  1  0  0  0  0
  2  3  2  0  0  0  0
  3  4  1  0  0  0  0
  3 45  1  0  0  0  0
  4  5  2  0  0  0  0
  4 13  1  0  0  0  0
  5  6  1  0  0  0  0
  6  7  1  0  0  0  0
  7 12  2  0  0  0  0
  7  8  1  0  0  0  0
  8  9  2  0  0  0  0
  8 46  1  0  0  0  0
  9 10  1  0  0  0  0
  9 47  1  0  0  0  0
 10 11  2  0  0  0  0
 10 48  1  0  0  0  0
 11 12  1  0  0  0  0
 11 49  1  0  0  0  0
 12 50  1  0  0  0  0
 13 14  1  0  0  0  0
 13 51  1  0  0  0  0
 13 52  1  0  0  0  0
 14 15  1  0  0  0  0
 14 53  1  0  0  0  0
 14 54  1  0  0  0  0
 15 16  1  0  0  0  0
 16 21  2  0  0  0  0
 16 17  1  0  0  0  0
 17 18  2  0  0  0  0
 17 55  1  0  0  0  0
 18 19  1  0  0  0  0
 18 56  1  0  0  0  0
 19 20  2  0  0  0  0
 19 22  1  0  0  0  0
 20 21  1  0  0  0  0
 20 57  1  0  0  0  0
 21 58  1  0  0  0  0
 22 23  1  0  0  0  0
 22 59  1  0  0  0  0
 22 60  1  0  0  0  0
 23 24  1  0  0  0  0
 23 25  1  0  0  0  0
 23 27  1  0  0  0  0
 25 26  2  0  0  0  0
 25 71  1  0  0  0  0
 27 28  1  0  0  0  0
 27 61  1  0  0  0  0
 28 33  2  0  0  0  0
 28 29  1  0  0  0  0
 29 30  2  0  0  0  0
 29 62  1  0  0  0  0
 30 31  1  0  0  0  0
 30 63  1  0  0  0  0
 31 32  2  0  0  0  0
 31 64  1  0  0  0  0
 32 33  1  0  0  0  0
 32 65  1  0  0  0  0
 33 34  1  0  0  0  0
 34 35  2  0  0  0  0
 34 36  1  0  0  0  0
 36 41  2  0  0  0  0
 36 37  1  0  0  0  0
 37 38  2  0  0  0  0
 37 66  1  0  0  0  0
 38 39  1  0  0  0  0
 38 67  1  0  0  0  0
 39 40  2  0  0  0  0
 39 68  1  0  0  0  0
 40 41  1  0  0  0  0
 40 69  1  0  0  0  0
 41 70  1  0  0  0  0
M  CHG  1  71  -1
M  END
$$$$
ZINC03832278
  -OEChem-08230709403D

 66 69  0     1  0  0  0  0  0999 V2000
   -0.8198    3.2859   -1.7126 C   0  0  0  0  0  0  0  0  0  0  0  0
   -1.1774    1.9786   -1.1564 N   0  0  3  0  0  0  0  0  0  0  0  0
   -0.4207    1.4309   -0.0278 C   0  0  0  0  0  0  0  0  0  0  0  0
   -1.0659    1.8801    1.2848 C   0  0  0  0  0  0  0  0  0  0  0  0
   -2.3718    1.3101    1.3931 O   0  0  0  0  0  0  0  0  0  0  0  0
   -3.0860    1.6118    2.5092 C   0  0  0  0  0  0  0  0  0  0  0  0
   -2.5389    2.4348    3.4829 C   0  0  0  0  0  0  0  0  0  0  0  0
   -3.2694    2.7449    4.6136 C   0  0  0  0  0  0  0  0  0  0  0  0
   -4.5399    2.2260    4.7812 C   0  0  0  0  0  0  0  0  0  0  0  0
   -5.0852    1.4009    3.8150 C   0  0  0  0  0  0  0  0  0  0  0  0
   -4.3613    1.0927    2.6795 C   0  0  0  0  0  0  0  0  0  0  0  0
   -5.3319    2.5605    6.0189 C   0  0  0  0  0  0  0  0  0  0  0  0
   -5.0424    1.5231    7.1056 C   0  0  2  0  0  0  0  0  0  0  0  0
   -5.2437    0.5246    6.7175 H   0  0  0  0  0  0  0  0  0  0  0  0
   -5.9249    1.7857    8.2986 C   0  0  0  0  0  0  0  0  0  0  0  0
   -5.4305    2.0262    9.3745 O   0  0  0  0  0  0  0  0  0  0  0  0
   -3.6368    1.6166    7.5079 N   0  0  0  0  0  0  0  0  0  0  0  0
   -2.9971    0.5136    8.0564 C   0  0  0  0  0  0  0  0  0  0  0  0
   -3.7137   -0.6450    8.3303 C   0  0  0  0  0  0  0  0  0  0  0  0
   -3.0755   -1.7400    8.8750 C   0  0  0  0  0  0  0  0  0  0  0  0
   -1.7178   -1.6955    9.1534 C   0  0  0  0  0  0  0  0  0  0  0  0
   -0.9899   -0.5570    8.8889 C   0  0  0  0  0  0  0  0  0  0  0  0
   -1.6204    0.5604    8.3322 C   0  0  0  0  0  0  0  0  0  0  0  0
   -0.8471    1.7800    8.0417 C   0  0  0  0  0  0  0  0  0  0  0  0
   -0.1097    1.8167    7.0754 O   0  0  0  0  0  0  0  0  0  0  0  0
   -0.9673    2.9592    8.9248 C   0  0  0  0  0  0  0  0  0  0  0  0
   -1.7273    2.8852   10.0941 C   0  0  0  0  0  0  0  0  0  0  0  0
   -1.8313    3.9880   10.9160 C   0  0  0  0  0  0  0  0  0  0  0  0
   -1.1931    5.1687   10.5791 C   0  0  0  0  0  0  0  0  0  0  0  0
   -0.4431    5.2507    9.4191 C   0  0  0  0  0  0  0  0  0  0  0  0
   -0.3263    4.1540    8.5907 C   0  0  0  0  0  0  0  0  0  0  0  0
   -2.2346    1.2579   -1.6995 C   0  0  0  0  0  0  0  0  0  0  0  0
   -2.6360    0.0669   -1.1024 C   0  0  0  0  0  0  0  0  0  0  0  0
   -3.6893   -0.6400   -1.6533 C   0  0  0  0  0  0  0  0  0  0  0  0
   -4.3085   -0.1305   -2.7872 C   0  0  0  0  0  0  0  0  0  0  0  0
   -3.8584    1.0572   -3.3274 C   0  0  0  0  0  0  0  0  0  0  0  0
   -0.0838    3.1544   -2.5057 H   0  0  0  0  0  0  0  0  0  0  0  0
   -1.7110    3.7637   -2.1195 H   0  0  0  0  0  0  0  0  0  0  0  0
   -0.3986    3.9124   -0.9263 H   0  0  0  0  0  0  0  0  0  0  0  0
   -0.4255    0.3423   -0.0812 H   0  0  0  0  0  0  0  0  0  0  0  0
    0.6069    1.7922   -0.0699 H   0  0  0  0  0  0  0  0  0  0  0  0
   -0.4537    1.5475    2.1230 H   0  0  0  0  0  0  0  0  0  0  0  0
   -1.1416    2.9673    1.2990 H   0  0  0  0  0  0  0  0  0  0  0  0
   -1.5446    2.8365    3.3547 H   0  0  0  0  0  0  0  0  0  0  0  0
   -2.8459    3.3897    5.3695 H   0  0  0  0  0  0  0  0  0  0  0  0
   -6.0779    0.9968    3.9482 H   0  0  0  0  0  0  0  0  0  0  0  0
   -4.7878    0.4485    1.9249 H   0  0  0  0  0  0  0  0  0  0  0  0
   -5.0470    3.5501    6.3761 H   0  0  0  0  0  0  0  0  0  0  0  0
   -6.3960    2.5520    5.7827 H   0  0  0  0  0  0  0  0  0  0  0  0
   -3.1532    2.4493    7.3909 H   0  0  0  0  0  0  0  0  0  0  0  0
   -4.7715   -0.6881    8.1170 H   0  0  0  0  0  0  0  0  0  0  0  0
   -3.6370   -2.6382    9.0857 H   0  0  0  0  0  0  0  0  0  0  0  0
   -1.2285   -2.5587    9.5798 H   0  0  0  0  0  0  0  0  0  0  0  0
    0.0673   -0.5282    9.1078 H   0  0  0  0  0  0  0  0  0  0  0  0
   -2.2290    1.9655   10.3562 H   0  0  0  0  0  0  0  0  0  0  0  0
   -2.4156    3.9311   11.8225 H   0  0  0  0  0  0  0  0  0  0  0  0
   -1.2810    6.0303   11.2244 H   0  0  0  0  0  0  0  0  0  0  0  0
    0.0521    6.1753    9.1619 H   0  0  0  0  0  0  0  0  0  0  0  0
    0.2593    4.2193    7.6856 H   0  0  0  0  0  0  0  0  0  0  0  0
   -2.1321   -0.3002   -0.2206 H   0  0  0  0  0  0  0  0  0  0  0  0
   -4.0226   -1.5676   -1.2118 H   0  0  0  0  0  0  0  0  0  0  0  0
   -5.1340   -0.6581   -3.2416 H   0  0  0  0  0  0  0  0  0  0  0  0
   -4.3370    1.4570   -4.2091 H   0  0  0  0  0  0  0  0  0  0  0  0
   -7.2602    1.7524    8.1660 O   0  5  0  0  0  0  0  0  0  0  0  0
   -2.8305    1.7816   -2.8094 N   0  3  0  0  0  0  0  0  0  0  0  0
   -2.5223    2.6673   -3.2275 H   0  0  0  0  0  0  0  0  0  0  0  0
  1  2  1  0  0  0  0
  1 37  1  0  0  0  0
  1 38  1  0  0  0  0
  1 39  1  0  0  0  0
  2  3  1  0  0  0  0
  2 32  1  0  0  0  0
  3  4  1  0  0  0  0
  3 40  1  0  0  0  0
  3 41  1  0  0  0  0
  4  5  1  0  0  0  0
  4 42  1  0  0  0  0
  4 43  1  0  0  0  0
  5  6  1  0  0  0  0
  6 11  2  0  0  0  0
  6  7  1  0  0  0  0
  7  8  2  0  0  0  0
  7 44  1  0  0  0  0
  8  9  1  0  0  0  0
  8 45  1  0  0  0  0
  9 10  2  0  0  0  0
  9 12  1  0  0  0  0
 10 11  1  0  0  0  0
 10 46  1  0  0  0  0
 11 47  1  0  0  0  0
 12 13  1  0  0  0  0
 12 48  1  0  0  0  0
 12 49  1  0  0  0  0
 13 14  1  0  0  0  0
 13 15  1  0  0  0  0
 13 17  1  0  0  0  0
 15 16  2  0  0  0  0
 15 64  1  0  0  0  0
 17 18  1  0  0  0  0
 17 50  1  0  0  0  0
 18 23  2  0  0  0  0
 18 19  1  0  0  0  0
 19 20  2  0  0  0  0
 19 51  1  0  0  0  0
 20 21  1  0  0  0  0
 20 52  1  0  0  0  0
 21 22  2  0  0  0  0
 21 53  1  0  0  0  0
 22 23  1  0  0  0  0
 22 54  1  0  0  0  0
 23 24  1  0  0  0  0
 24 25  2  0  0  0  0
 24 26  1  0  0  0  0
 26 31  2  0  0  0  0
 26 27  1  0  0  0  0
 27 28  2  0  0  0  0
 27 55  1  0  0  0  0
 28 29  1  0  0  0  0
 28 56  1  0  0  0  0
 29 30  2  0  0  0  0
 29 57  1  0  0  0  0
 30 31  1  0  0  0  0
 30 58  1  0  0  0  0
 31 59  1  0  0  0  0
 32 33  2  0  0  0  0
 32 65  1  0  0  0  0
 33 34  1  0  0  0  0
 33 60  1  0  0  0  0
 34 35  2  0  0  0  0
 34 61  1  0  0  0  0
 35 36  1  0  0  0  0
 35 62  1  0  0  0  0
 36 63  1  0  0  0  0
 36 65  2  0  0  0  0
 65 66  1  0  0  0  0
M  CHG  2  64  -1  65   1
M  END
$$$$
ZINC03832279
  -OEChem-08230709403D

 69 73  0     1  0  0  0  0  0999 V2000
    1.7123   13.3326    1.8856 C   0  0  0  0  0  0  0  0  0  0  0  0
    0.9285   13.8495    0.7068 C   0  0  0  0  0  0  0  0  0  0  0  0
    1.0925   13.4905   -0.5805 C   0  0  0  0  0  0  0  0  0  0  0  0
    0.2074   14.1792   -1.3148 N   0  0  0  0  0  0  0  0  0  0  0  0
   -0.4992   14.9415   -0.5142 C   0  0  0  0  0  0  0  0  0  0  0  0
   -0.0668   14.7563    0.7451 O   0  0  0  0  0  0  0  0  0  0  0  0
   -1.5848   15.8559   -0.9285 C   0  0  0  0  0  0  0  0  0  0  0  0
   -1.9505   15.9753   -2.2743 C   0  0  0  0  0  0  0  0  0  0  0  0
   -2.9726   16.8368   -2.6156 C   0  0  0  0  0  0  0  0  0  0  0  0
   -3.5941   17.5490   -1.6954 N   0  0  0  0  0  0  0  0  0  0  0  0
   -3.2776   17.4706   -0.4170 C   0  0  0  0  0  0  0  0  0  0  0  0
   -2.2715   16.6307    0.0136 C   0  0  0  0  0  0  0  0  0  0  0  0
    2.0969   12.4961   -1.1035 C   0  0  0  0  0  0  0  0  0  0  0  0
    1.4761   11.0978   -1.1068 C   0  0  0  0  0  0  0  0  0  0  0  0
    2.4285   10.1549   -1.6028 O   0  0  0  0  0  0  0  0  0  0  0  0
    2.0332    8.8565   -1.6711 C   0  0  0  0  0  0  0  0  0  0  0  0
    2.9072    7.8880   -2.1430 C   0  0  0  0  0  0  0  0  0  0  0  0
    2.5032    6.5687   -2.2110 C   0  0  0  0  0  0  0  0  0  0  0  0
    1.2288    6.2132   -1.8093 C   0  0  0  0  0  0  0  0  0  0  0  0
    0.3539    7.1774   -1.3439 C   0  0  0  0  0  0  0  0  0  0  0  0
    0.7551    8.4972   -1.2686 C   0  0  0  0  0  0  0  0  0  0  0  0
    0.7906    4.7732   -1.8846 C   0  0  0  0  0  0  0  0  0  0  0  0
    1.1259    4.0687   -0.5685 C   0  0  1  0  0  0  0  0  0  0  0  0
    0.6786    4.6163    0.2610 H   0  0  0  0  0  0  0  0  0  0  0  0
    0.5788    2.6647   -0.5968 C   0  0  0  0  0  0  0  0  0  0  0  0
    1.3268    1.7225   -0.4842 O   0  0  0  0  0  0  0  0  0  0  0  0
    2.5800    4.0228   -0.3958 N   0  0  0  0  0  0  0  0  0  0  0  0
    3.1250    3.9270    0.8772 C   0  0  0  0  0  0  0  0  0  0  0  0
    2.2971    3.7634    1.9811 C   0  0  0  0  0  0  0  0  0  0  0  0
    2.8412    3.6680    3.2452 C   0  0  0  0  0  0  0  0  0  0  0  0
    4.2144    3.7344    3.4260 C   0  0  0  0  0  0  0  0  0  0  0  0
    5.0519    3.8958    2.3450 C   0  0  0  0  0  0  0  0  0  0  0  0
    4.5170    3.9893    1.0561 C   0  0  0  0  0  0  0  0  0  0  0  0
    5.4070    4.1570   -0.1056 C   0  0  0  0  0  0  0  0  0  0  0  0
    5.9410    5.2298   -0.3126 O   0  0  0  0  0  0  0  0  0  0  0  0
    5.6510    3.0214   -1.0198 C   0  0  0  0  0  0  0  0  0  0  0  0
    5.1366    1.7579   -0.7215 C   0  0  0  0  0  0  0  0  0  0  0  0
    5.3640    0.7036   -1.5814 C   0  0  0  0  0  0  0  0  0  0  0  0
    6.1086    0.8936   -2.7323 C   0  0  0  0  0  0  0  0  0  0  0  0
    6.6261    2.1417   -3.0310 C   0  0  0  0  0  0  0  0  0  0  0  0
    6.4019    3.2059   -2.1826 C   0  0  0  0  0  0  0  0  0  0  0  0
    2.5860   13.9642    2.0462 H   0  0  0  0  0  0  0  0  0  0  0  0
    1.0833   13.3494    2.7757 H   0  0  0  0  0  0  0  0  0  0  0  0
    2.0344   12.3103    1.6876 H   0  0  0  0  0  0  0  0  0  0  0  0
   -1.4430   15.3987   -3.0335 H   0  0  0  0  0  0  0  0  0  0  0  0
   -3.2648   16.9328   -3.6509 H   0  0  0  0  0  0  0  0  0  0  0  0
   -3.8133   18.0724    0.3022 H   0  0  0  0  0  0  0  0  0  0  0  0
   -2.0177   16.5716    1.0617 H   0  0  0  0  0  0  0  0  0  0  0  0
    2.9794   12.5003   -0.4637 H   0  0  0  0  0  0  0  0  0  0  0  0
    2.3832   12.7689   -2.1192 H   0  0  0  0  0  0  0  0  0  0  0  0
    0.5936   11.0935   -1.7466 H   0  0  0  0  0  0  0  0  0  0  0  0
    1.1898   10.8249   -0.0911 H   0  0  0  0  0  0  0  0  0  0  0  0
    3.9029    8.1651   -2.4566 H   0  0  0  0  0  0  0  0  0  0  0  0
    3.1834    5.8143   -2.5780 H   0  0  0  0  0  0  0  0  0  0  0  0
   -0.6426    6.8979   -1.0352 H   0  0  0  0  0  0  0  0  0  0  0  0
    0.0728    9.2493   -0.9008 H   0  0  0  0  0  0  0  0  0  0  0  0
    1.3103    4.2777   -2.7047 H   0  0  0  0  0  0  0  0  0  0  0  0
   -0.2848    4.7292   -2.0566 H   0  0  0  0  0  0  0  0  0  0  0  0
    3.1619    4.0593   -1.1710 H   0  0  0  0  0  0  0  0  0  0  0  0
    1.2264    3.7111    1.8494 H   0  0  0  0  0  0  0  0  0  0  0  0
    2.1933    3.5405    4.0998 H   0  0  0  0  0  0  0  0  0  0  0  0
    4.6295    3.6586    4.4201 H   0  0  0  0  0  0  0  0  0  0  0  0
    6.1206    3.9468    2.4918 H   0  0  0  0  0  0  0  0  0  0  0  0
    4.5586    1.6074    0.1783 H   0  0  0  0  0  0  0  0  0  0  0  0
    4.9636   -0.2733   -1.3538 H   0  0  0  0  0  0  0  0  0  0  0  0
    6.2869    0.0638   -3.4002 H   0  0  0  0  0  0  0  0  0  0  0  0
    7.2067    2.2830   -3.9307 H   0  0  0  0  0  0  0  0  0  0  0  0
    6.8064    4.1795   -2.4170 H   0  0  0  0  0  0  0  0  0  0  0  0
   -0.7394    2.4610   -0.7471 O   0  5  0  0  0  0  0  0  0  0  0  0
  1  2  1  0  0  0  0
  1 42  1  0  0  0  0
  1 43  1  0  0  0  0
  1 44  1  0  0  0  0
  2  6  1  0  0  0  0
  2  3  2  0  0  0  0
  3  4  1  0  0  0  0
  3 13  1  0  0  0  0
  4  5  2  0  0  0  0
  5  6  1  0  0  0  0
  5  7  1  0  0  0  0
  7 12  2  0  0  0  0
  7  8  1  0  0  0  0
  8  9  2  0  0  0  0
  8 45  1  0  0  0  0
  9 10  1  0  0  0  0
  9 46  1  0  0  0  0
 10 11  2  0  0  0  0
 11 12  1  0  0  0  0
 11 47  1  0  0  0  0
 12 48  1  0  0  0  0
 13 14  1  0  0  0  0
 13 49  1  0  0  0  0
 13 50  1  0  0  0  0
 14 15  1  0  0  0  0
 14 51  1  0  0  0  0
 14 52  1  0  0  0  0
 15 16  1  0  0  0  0
 16 21  2  0  0  0  0
 16 17  1  0  0  0  0
 17 18  2  0  0  0  0
 17 53  1  0  0  0  0
 18 19  1  0  0  0  0
 18 54  1  0  0  0  0
 19 20  2  0  0  0  0
 19 22  1  0  0  0  0
 20 21  1  0  0  0  0
 20 55  1  0  0  0  0
 21 56  1  0  0  0  0
 22 23  1  0  0  0  0
 22 57  1  0  0  0  0
 22 58  1  0  0  0  0
 23 24  1  0  0  0  0
 23 25  1  0  0  0  0
 23 27  1  0  0  0  0
 25 26  2  0  0  0  0
 25 69  1  0  0  0  0
 27 28  1  0  0  0  0
 27 59  1  0  0  0  0
 28 33  2  0  0  0  0
 28 29  1  0  0  0  0
 29 30  2  0  0  0  0
 29 60  1  0  0  0  0
 30 31  1  0  0  0  0
 30 61  1  0  0  0  0
 31 32  2  0  0  0  0
 31 62  1  0  0  0  0
 32 33  1  0  0  0  0
 32 63  1  0  0  0  0
 33 34  1  0  0  0  0
 34 35  2  0  0  0  0
 34 36  1  0  0  0  0
 36 41  2  0  0  0  0
 36 37  1  0  0  0  0
 37 38  2  0  0  0  0
 37 64  1  0  0  0  0
 38 39  1  0  0  0  0
 38 65  1  0  0  0  0
 39 40  2  0  0  0  0
 39 66  1  0  0  0  0
 40 41  1  0  0  0  0
 40 67  1  0  0  0  0
 41 68  1  0  0  0  0
M  CHG  1  69  -1
M  END
$$$$
ZINC03832280
  -OEChem-08230709403D

 68 72  0     1  0  0  0  0  0999 V2000
   -2.4999    1.3972   -1.8207 C   0  0  0  0  0  0  0  0  0  0  0  0
   -1.8158    0.1068   -1.7055 N   0  0  0  0  0  0  0  0  0  0  0  0
   -1.2318   -0.3009   -0.4253 C   0  0  0  0  0  0  0  0  0  0  0  0
    0.2171    0.1847   -0.3481 C   0  0  0  0  0  0  0  0  0  0  0  0
    0.2407    1.6134   -0.3364 O   0  0  0  0  0  0  0  0  0  0  0  0
    1.4600    2.2099   -0.2700 C   0  0  0  0  0  0  0  0  0  0  0  0
    2.6098    1.4358   -0.2114 C   0  0  0  0  0  0  0  0  0  0  0  0
    3.8484    2.0446   -0.1502 C   0  0  0  0  0  0  0  0  0  0  0  0
    3.9421    3.4240   -0.1349 C   0  0  0  0  0  0  0  0  0  0  0  0
    2.7973    4.1976   -0.1874 C   0  0  0  0  0  0  0  0  0  0  0  0
    1.5567    3.5937   -0.2549 C   0  0  0  0  0  0  0  0  0  0  0  0
    5.2942    4.0853   -0.0613 C   0  0  0  0  0  0  0  0  0  0  0  0
    5.6785    4.2986    1.4042 C   0  0  2  0  0  0  0  0  0  0  0  0
    4.8920    4.8603    1.9081 H   0  0  0  0  0  0  0  0  0  0  0  0
    6.9717    5.0690    1.4774 C   0  0  0  0  0  0  0  0  0  0  0  0
    7.9349    4.5823    2.0208 O   0  0  0  0  0  0  0  0  0  0  0  0
    5.8467    2.9989    2.0591 N   0  0  0  0  0  0  0  0  0  0  0  0
    5.6809    2.8873    3.4327 C   0  0  0  0  0  0  0  0  0  0  0  0
    5.4675    4.0224    4.2052 C   0  0  0  0  0  0  0  0  0  0  0  0
    5.3026    3.9087    5.5701 C   0  0  0  0  0  0  0  0  0  0  0  0
    5.3481    2.6653    6.1822 C   0  0  0  0  0  0  0  0  0  0  0  0
    5.5580    1.5285    5.4343 C   0  0  0  0  0  0  0  0  0  0  0  0
    5.7223    1.6254    4.0488 C   0  0  0  0  0  0  0  0  0  0  0  0
    5.9422    0.4130    3.2416 C   0  0  0  0  0  0  0  0  0  0  0  0
    5.0123   -0.3315    2.9970 O   0  0  0  0  0  0  0  0  0  0  0  0
    7.2931    0.1014    2.7290 C   0  0  0  0  0  0  0  0  0  0  0  0
    8.3829    0.8932    3.0972 C   0  0  0  0  0  0  0  0  0  0  0  0
    9.6415    0.5938    2.6190 C   0  0  0  0  0  0  0  0  0  0  0  0
    9.8241   -0.4821    1.7682 C   0  0  0  0  0  0  0  0  0  0  0  0
    8.7476   -1.2675    1.3947 C   0  0  0  0  0  0  0  0  0  0  0  0
    7.4844   -0.9826    1.8697 C   0  0  0  0  0  0  0  0  0  0  0  0
   -1.7218   -0.7224   -2.8002 C   0  0  0  0  0  0  0  0  0  0  0  0
   -1.1297   -1.8893   -2.8081 N   0  0  0  0  0  0  0  0  0  0  0  0
   -1.2359   -2.4241   -4.0557 C   0  0  0  0  0  0  0  0  0  0  0  0
   -0.8036   -3.6193   -4.6317 C   0  0  0  0  0  0  0  0  0  0  0  0
   -1.0683   -3.8727   -5.9598 C   0  0  0  0  0  0  0  0  0  0  0  0
   -1.7609   -2.9477   -6.7258 C   0  0  0  0  0  0  0  0  0  0  0  0
   -2.1940   -1.7616   -6.1683 C   0  0  0  0  0  0  0  0  0  0  0  0
   -1.9363   -1.4908   -4.8344 C   0  0  0  0  0  0  0  0  0  0  0  0
   -2.2199   -0.4492   -4.0188 O   0  0  0  0  0  0  0  0  0  0  0  0
   -1.7823    2.1642   -2.1117 H   0  0  0  0  0  0  0  0  0  0  0  0
   -3.2830    1.3271   -2.5757 H   0  0  0  0  0  0  0  0  0  0  0  0
   -2.9435    1.6602   -0.8604 H   0  0  0  0  0  0  0  0  0  0  0  0
   -1.2555   -1.3876   -0.3448 H   0  0  0  0  0  0  0  0  0  0  0  0
   -1.8056    0.1366    0.3916 H   0  0  0  0  0  0  0  0  0  0  0  0
    0.7694   -0.1808   -1.2138 H   0  0  0  0  0  0  0  0  0  0  0  0
    0.6790   -0.1938    0.5638 H   0  0  0  0  0  0  0  0  0  0  0  0
    2.5369    0.3583   -0.2185 H   0  0  0  0  0  0  0  0  0  0  0  0
    4.7441    1.4425   -0.1098 H   0  0  0  0  0  0  0  0  0  0  0  0
    2.8731    5.2748   -0.1753 H   0  0  0  0  0  0  0  0  0  0  0  0
    0.6628    4.1984   -0.2963 H   0  0  0  0  0  0  0  0  0  0  0  0
    6.0367    3.4489   -0.5427 H   0  0  0  0  0  0  0  0  0  0  0  0
    5.2559    5.0482   -0.5707 H   0  0  0  0  0  0  0  0  0  0  0  0
    6.0738    2.2164    1.5327 H   0  0  0  0  0  0  0  0  0  0  0  0
    5.4310    4.9948    3.7365 H   0  0  0  0  0  0  0  0  0  0  0  0
    5.1367    4.7941    6.1659 H   0  0  0  0  0  0  0  0  0  0  0  0
    5.2177    2.5881    7.2515 H   0  0  0  0  0  0  0  0  0  0  0  0
    5.5924    0.5627    5.9166 H   0  0  0  0  0  0  0  0  0  0  0  0
    8.2411    1.7355    3.7582 H   0  0  0  0  0  0  0  0  0  0  0  0
   10.4859    1.2031    2.9059 H   0  0  0  0  0  0  0  0  0  0  0  0
   10.8111   -0.7098    1.3936 H   0  0  0  0  0  0  0  0  0  0  0  0
    8.8970   -2.1055    0.7300 H   0  0  0  0  0  0  0  0  0  0  0  0
    6.6451   -1.5963    1.5774 H   0  0  0  0  0  0  0  0  0  0  0  0
   -0.2641   -4.3430   -4.0388 H   0  0  0  0  0  0  0  0  0  0  0  0
   -0.7346   -4.7976   -6.4067 H   0  0  0  0  0  0  0  0  0  0  0  0
   -1.9626   -3.1565   -7.7661 H   0  0  0  0  0  0  0  0  0  0  0  0
   -2.7327   -1.0455   -6.7713 H   0  0  0  0  0  0  0  0  0  0  0  0
    7.0534    6.2958    0.9389 O   0  5  0  0  0  0  0  0  0  0  0  0
  1  2  1  0  0  0  0
  1 41  1  0  0  0  0
  1 42  1  0  0  0  0
  1 43  1  0  0  0  0
  2  3  1  0  0  0  0
  2 32  1  0  0  0  0
  3  4  1  0  0  0  0
  3 44  1  0  0  0  0
  3 45  1  0  0  0  0
  4  5  1  0  0  0  0
  4 46  1  0  0  0  0
  4 47  1  0  0  0  0
  5  6  1  0  0  0  0
  6 11  2  0  0  0  0
  6  7  1  0  0  0  0
  7  8  2  0  0  0  0
  7 48  1  0  0  0  0
  8  9  1  0  0  0  0
  8 49  1  0  0  0  0
  9 10  2  0  0  0  0
  9 12  1  0  0  0  0
 10 11  1  0  0  0  0
 10 50  1  0  0  0  0
 11 51  1  0  0  0  0
 12 13  1  0  0  0  0
 12 52  1  0  0  0  0
 12 53  1  0  0  0  0
 13 14  1  0  0  0  0
 13 15  1  0  0  0  0
 13 17  1  0  0  0  0
 15 16  2  0  0  0  0
 15 68  1  0  0  0  0
 17 18  1  0  0  0  0
 17 54  1  0  0  0  0
 18 23  2  0  0  0  0
 18 19  1  0  0  0  0
 19 20  2  0  0  0  0
 19 55  1  0  0  0  0
 20 21  1  0  0  0  0
 20 56  1  0  0  0  0
 21 22  2  0  0  0  0
 21 57  1  0  0  0  0
 22 23  1  0  0  0  0
 22 58  1  0  0  0  0
 23 24  1  0  0  0  0
 24 25  2  0  0  0  0
 24 26  1  0  0  0  0
 26 31  2  0  0  0  0
 26 27  1  0  0  0  0
 27 28  2  0  0  0  0
 27 59  1  0  0  0  0
 28 29  1  0  0  0  0
 28 60  1  0  0  0  0
 29 30  2  0  0  0  0
 29 61  1  0  0  0  0
 30 31  1  0  0  0  0
 30 62  1  0  0  0  0
 31 63  1  0  0  0  0
 32 40  1  0  0  0  0
 32 33  2  0  0  0  0
 33 34  1  0  0  0  0
 34 39  2  0  0  0  0
 34 35  1  0  0  0  0
 35 36  2  0  0  0  0
 35 64  1  0  0  0  0
 36 37  1  0  0  0  0
 36 65  1  0  0  0  0
 37 38  2  0  0  0  0
 37 66  1  0  0  0  0
 38 39  1  0  0  0  0
 38 67  1  0  0  0  0
 39 40  1  0  0  0  0
M  CHG  1  68  -1
M  END
$$$$
ZINC03832281
  -OEChem-08230709403D

 70 74  0     1  0  0  0  0  0999 V2000
    1.8347   -2.3346   -0.3141 C   0  0  0  0  0  0  0  0  0  0  0  0
    1.3429   -0.9147   -0.1997 C   0  0  0  0  0  0  0  0  0  0  0  0
    0.0589   -0.5173   -0.1467 C   0  0  0  0  0  0  0  0  0  0  0  0
    0.0465    0.8208   -0.0471 N   0  0  0  0  0  0  0  0  0  0  0  0
    1.2858    1.2524   -0.0378 C   0  0  0  0  0  0  0  0  0  0  0  0
    2.1081    0.1930   -0.1315 O   0  0  0  0  0  0  0  0  0  0  0  0
    1.7069    2.6658    0.0589 C   0  0  0  0  0  0  0  0  0  0  0  0
    0.7491    3.6776    0.1453 C   0  0  0  0  0  0  0  0  0  0  0  0
    1.1475    4.9943    0.2407 C   0  0  0  0  0  0  0  0  0  0  0  0
    2.4960    5.3147    0.2399 C   0  0  0  0  0  0  0  0  0  0  0  0
    3.4510    4.3144    0.1490 C   0  0  0  0  0  0  0  0  0  0  0  0
    3.0637    2.9941    0.0585 C   0  0  0  0  0  0  0  0  0  0  0  0
    2.8808    6.6068    0.3275 F   0  0  0  0  0  0  0  0  0  0  0  0
   -1.1506   -1.4152   -0.1904 C   0  0  0  0  0  0  0  0  0  0  0  0
   -1.5867   -1.6129   -1.6435 C   0  0  0  0  0  0  0  0  0  0  0  0
   -2.7336   -2.4643   -1.6850 O   0  0  0  0  0  0  0  0  0  0  0  0
   -3.2513   -2.7428   -2.9103 C   0  0  0  0  0  0  0  0  0  0  0  0
   -2.6709   -2.2029   -4.0489 C   0  0  0  0  0  0  0  0  0  0  0  0
   -3.1958   -2.4918   -5.2936 C   0  0  0  0  0  0  0  0  0  0  0  0
   -4.3051   -3.3097   -5.4045 C   0  0  0  0  0  0  0  0  0  0  0  0
   -4.8888   -3.8444   -4.2709 C   0  0  0  0  0  0  0  0  0  0  0  0
   -4.3645   -3.5628   -3.0243 C   0  0  0  0  0  0  0  0  0  0  0  0
   -4.8792   -3.6185   -6.7633 C   0  0  0  0  0  0  0  0  0  0  0  0
   -5.9336   -2.5694   -7.1219 C   0  0  2  0  0  0  0  0  0  0  0  0
   -6.6843   -2.5244   -6.3329 H   0  0  0  0  0  0  0  0  0  0  0  0
   -6.5943   -2.9457   -8.4230 C   0  0  0  0  0  0  0  0  0  0  0  0
   -6.5352   -2.1967   -9.3693 O   0  0  0  0  0  0  0  0  0  0  0  0
   -5.2919   -1.2598   -7.2608 N   0  0  0  0  0  0  0  0  0  0  0  0
   -6.0308   -0.1008   -7.0671 C   0  0  0  0  0  0  0  0  0  0  0  0
   -7.4020   -0.1739   -6.8544 C   0  0  0  0  0  0  0  0  0  0  0  0
   -8.1333    0.9790   -6.6565 C   0  0  0  0  0  0  0  0  0  0  0  0
   -7.5113    2.2182   -6.6792 C   0  0  0  0  0  0  0  0  0  0  0  0
   -6.1546    2.3122   -6.8941 C   0  0  0  0  0  0  0  0  0  0  0  0
   -5.3975    1.1529   -7.0908 C   0  0  0  0  0  0  0  0  0  0  0  0
   -3.9455    1.2459   -7.3218 C   0  0  0  0  0  0  0  0  0  0  0  0
   -3.1959    1.4796   -6.3932 O   0  0  0  0  0  0  0  0  0  0  0  0
   -3.3999    1.0550   -8.6821 C   0  0  0  0  0  0  0  0  0  0  0  0
   -4.2632    0.8942   -9.7679 C   0  0  0  0  0  0  0  0  0  0  0  0
   -3.7472    0.7223  -11.0355 C   0  0  0  0  0  0  0  0  0  0  0  0
   -2.3775    0.6976  -11.2310 C   0  0  0  0  0  0  0  0  0  0  0  0
   -1.5163    0.8506  -10.1587 C   0  0  0  0  0  0  0  0  0  0  0  0
   -2.0187    1.0291   -8.8866 C   0  0  0  0  0  0  0  0  0  0  0  0
    1.9345   -2.6009   -1.3663 H   0  0  0  0  0  0  0  0  0  0  0  0
    2.8038   -2.4242    0.1769 H   0  0  0  0  0  0  0  0  0  0  0  0
    1.1216   -3.0058    0.1645 H   0  0  0  0  0  0  0  0  0  0  0  0
   -0.3020    3.4293    0.1415 H   0  0  0  0  0  0  0  0  0  0  0  0
    0.4074    5.7776    0.3121 H   0  0  0  0  0  0  0  0  0  0  0  0
    4.5004    4.5695    0.1488 H   0  0  0  0  0  0  0  0  0  0  0  0
    3.8086    2.2154   -0.0129 H   0  0  0  0  0  0  0  0  0  0  0  0
   -0.9019   -2.3813    0.2489 H   0  0  0  0  0  0  0  0  0  0  0  0
   -1.9633   -0.9578    0.3739 H   0  0  0  0  0  0  0  0  0  0  0  0
   -1.8354   -0.6468   -2.0829 H   0  0  0  0  0  0  0  0  0  0  0  0
   -0.7740   -2.0703   -2.2078 H   0  0  0  0  0  0  0  0  0  0  0  0
   -1.8069   -1.5607   -3.9625 H   0  0  0  0  0  0  0  0  0  0  0  0
   -2.7417   -2.0754   -6.1806 H   0  0  0  0  0  0  0  0  0  0  0  0
   -5.7552   -4.4830   -4.3602 H   0  0  0  0  0  0  0  0  0  0  0  0
   -4.8210   -3.9804   -2.1390 H   0  0  0  0  0  0  0  0  0  0  0  0
   -4.0823   -3.6016   -7.5068 H   0  0  0  0  0  0  0  0  0  0  0  0
   -5.3401   -4.6061   -6.7471 H   0  0  0  0  0  0  0  0  0  0  0  0
   -4.3506   -1.2026   -7.4881 H   0  0  0  0  0  0  0  0  0  0  0  0
   -7.8951   -1.1347   -6.8396 H   0  0  0  0  0  0  0  0  0  0  0  0
   -9.1980    0.9164   -6.4868 H   0  0  0  0  0  0  0  0  0  0  0  0
   -8.0944    3.1145   -6.5279 H   0  0  0  0  0  0  0  0  0  0  0  0
   -5.6755    3.2801   -6.9104 H   0  0  0  0  0  0  0  0  0  0  0  0
   -5.3323    0.9084   -9.6161 H   0  0  0  0  0  0  0  0  0  0  0  0
   -4.4137    0.6018  -11.8768 H   0  0  0  0  0  0  0  0  0  0  0  0
   -1.9788    0.5578  -12.2249 H   0  0  0  0  0  0  0  0  0  0  0  0
   -0.4483    0.8307  -10.3183 H   0  0  0  0  0  0  0  0  0  0  0  0
   -1.3455    1.1481   -8.0505 H   0  0  0  0  0  0  0  0  0  0  0  0
   -7.2484   -4.1128   -8.5308 O   0  5  0  0  0  0  0  0  0  0  0  0
  1  2  1  0  0  0  0
  1 43  1  0  0  0  0
  1 44  1  0  0  0  0
  1 45  1  0  0  0  0
  2  6  1  0  0  0  0
  2  3  2  0  0  0  0
  3  4  1  0  0  0  0
  3 14  1  0  0  0  0
  4  5  2  0  0  0  0
  5  6  1  0  0  0  0
  5  7  1  0  0  0  0
  7 12  2  0  0  0  0
  7  8  1  0  0  0  0
  8  9  2  0  0  0  0
  8 46  1  0  0  0  0
  9 10  1  0  0  0  0
  9 47  1  0  0  0  0
 10 11  2  0  0  0  0
 10 13  1  0  0  0  0
 11 12  1  0  0  0  0
 11 48  1  0  0  0  0
 12 49  1  0  0  0  0
 14 15  1  0  0  0  0
 14 50  1  0  0  0  0
 14 51  1  0  0  0  0
 15 16  1  0  0  0  0
 15 52  1  0  0  0  0
 15 53  1  0  0  0  0
 16 17  1  0  0  0  0
 17 22  2  0  0  0  0
 17 18  1  0  0  0  0
 18 19  2  0  0  0  0
 18 54  1  0  0  0  0
 19 20  1  0  0  0  0
 19 55  1  0  0  0  0
 20 21  2  0  0  0  0
 20 23  1  0  0  0  0
 21 22  1  0  0  0  0
 21 56  1  0  0  0  0
 22 57  1  0  0  0  0
 23 24  1  0  0  0  0
 23 58  1  0  0  0  0
 23 59  1  0  0  0  0
 24 25  1  0  0  0  0
 24 26  1  0  0  0  0
 24 28  1  0  0  0  0
 26 27  2  0  0  0  0
 26 70  1  0  0  0  0
 28 29  1  0  0  0  0
 28 60  1  0  0  0  0
 29 34  2  0  0  0  0
 29 30  1  0  0  0  0
 30 31  2  0  0  0  0
 30 61  1  0  0  0  0
 31 32  1  0  0  0  0
 31 62  1  0  0  0  0
 32 33  2  0  0  0  0
 32 63  1  0  0  0  0
 33 34  1  0  0  0  0
 33 64  1  0  0  0  0
 34 35  1  0  0  0  0
 35 36  2  0  0  0  0
 35 37  1  0  0  0  0
 37 42  2  0  0  0  0
 37 38  1  0  0  0  0
 38 39  2  0  0  0  0
 38 65  1  0  0  0  0
 39 40  1  0  0  0  0
 39 66  1  0  0  0  0
 40 41  2  0  0  0  0
 40 67  1  0  0  0  0
 41 42  1  0  0  0  0
 41 68  1  0  0  0  0
 42 69  1  0  0  0  0
M  CHG  1  70  -1
M  END
$$$$
ZINC03832282
  -OEChem-08230709403D

 71 75  0     1  0  0  0  0  0999 V2000
    0.8683    1.4845    8.2589 C   0  0  0  0  0  0  0  0  0  0  0  0
    1.8704    2.5944    8.4463 C   0  0  0  0  0  0  0  0  0  0  0  0
    1.6100    3.8245    8.9401 C   0  0  0  0  0  0  0  0  0  0  0  0
    2.8168    4.5506    8.9486 C   0  0  0  0  0  0  0  0  0  0  0  0
    3.7641    3.7674    8.4777 N   0  0  0  0  0  0  0  0  0  0  0  0
    3.1867    2.5338    8.1509 N   0  0  0  0  0  0  0  0  0  0  0  0
    3.8899    1.3767    7.5916 C   0  0  0  0  0  0  0  0  0  0  0  0
    3.8574    1.4498    6.0637 C   0  0  0  0  0  0  0  0  0  0  0  0
    4.5434    0.3211    5.5181 O   0  0  0  0  0  0  0  0  0  0  0  0
    4.6067    0.2333    4.1635 C   0  0  0  0  0  0  0  0  0  0  0  0
    5.2575   -0.8365    3.5662 C   0  0  0  0  0  0  0  0  0  0  0  0
    5.3201   -0.9238    2.1890 C   0  0  0  0  0  0  0  0  0  0  0  0
    4.7350    0.0540    1.4058 C   0  0  0  0  0  0  0  0  0  0  0  0
    4.0907    1.1241    1.9987 C   0  0  0  0  0  0  0  0  0  0  0  0
    4.0204    1.2130    3.3755 C   0  0  0  0  0  0  0  0  0  0  0  0
    4.8048   -0.0437   -0.0964 C   0  0  0  0  0  0  0  0  0  0  0  0
    3.5939   -0.8227   -0.6137 C   0  0  2  0  0  0  0  0  0  0  0  0
    3.5460   -1.7918   -0.1169 H   0  0  0  0  0  0  0  0  0  0  0  0
    3.7257   -1.0267   -2.1010 C   0  0  0  0  0  0  0  0  0  0  0  0
    2.8842   -0.5868   -2.8480 O   0  0  0  0  0  0  0  0  0  0  0  0
    2.3705   -0.0681   -0.3308 N   0  0  0  0  0  0  0  0  0  0  0  0
    1.1571   -0.7318   -0.2130 C   0  0  0  0  0  0  0  0  0  0  0  0
    1.0782   -2.0947   -0.4725 C   0  0  0  0  0  0  0  0  0  0  0  0
   -0.1300   -2.7509   -0.3603 C   0  0  0  0  0  0  0  0  0  0  0  0
   -1.2721   -2.0608    0.0168 C   0  0  0  0  0  0  0  0  0  0  0  0
   -1.2138   -0.7112    0.2833 C   0  0  0  0  0  0  0  0  0  0  0  0
    0.0031   -0.0306    0.1743 C   0  0  0  0  0  0  0  0  0  0  0  0
    0.0731    1.4132    0.4580 C   0  0  0  0  0  0  0  0  0  0  0  0
    0.0489    1.8089    1.6076 O   0  0  0  0  0  0  0  0  0  0  0  0
    0.1787    2.3807   -0.6545 C   0  0  0  0  0  0  0  0  0  0  0  0
    0.1643    1.9329   -1.9771 C   0  0  0  0  0  0  0  0  0  0  0  0
    0.2589    2.8416   -3.0105 C   0  0  0  0  0  0  0  0  0  0  0  0
    0.3777    4.1933   -2.7388 C   0  0  0  0  0  0  0  0  0  0  0  0
    0.3979    4.6434   -1.4304 C   0  0  0  0  0  0  0  0  0  0  0  0
    0.2992    3.7461   -0.3875 C   0  0  0  0  0  0  0  0  0  0  0  0
    2.9909    5.9495    9.4128 C   0  0  0  0  0  0  0  0  0  0  0  0
    1.8976    6.6685    9.8914 C   0  0  0  0  0  0  0  0  0  0  0  0
    2.0661    7.9675   10.3263 C   0  0  0  0  0  0  0  0  0  0  0  0
    3.3153    8.5594   10.2774 C   0  0  0  0  0  0  0  0  0  0  0  0
    4.4032    7.8518    9.7988 C   0  0  0  0  0  0  0  0  0  0  0  0
    4.2470    6.5504    9.3662 C   0  0  0  0  0  0  0  0  0  0  0  0
    0.8243    0.8781    9.1636 H   0  0  0  0  0  0  0  0  0  0  0  0
   -0.1144    1.9120    8.0599 H   0  0  0  0  0  0  0  0  0  0  0  0
    1.1703    0.8606    7.4176 H   0  0  0  0  0  0  0  0  0  0  0  0
    0.6474    4.1869    9.2694 H   0  0  0  0  0  0  0  0  0  0  0  0
    3.4013    0.4601    7.9220 H   0  0  0  0  0  0  0  0  0  0  0  0
    4.9249    1.3804    7.9336 H   0  0  0  0  0  0  0  0  0  0  0  0
    4.3460    2.3664    5.7333 H   0  0  0  0  0  0  0  0  0  0  0  0
    2.8225    1.4461    5.7217 H   0  0  0  0  0  0  0  0  0  0  0  0
    5.7144   -1.6007    4.1775 H   0  0  0  0  0  0  0  0  0  0  0  0
    5.8263   -1.7566    1.7235 H   0  0  0  0  0  0  0  0  0  0  0  0
    3.6385    1.8891    1.3848 H   0  0  0  0  0  0  0  0  0  0  0  0
    3.5132    2.0468    3.8380 H   0  0  0  0  0  0  0  0  0  0  0  0
    5.7199   -0.5610   -0.3847 H   0  0  0  0  0  0  0  0  0  0  0  0
    4.8029    0.9581   -0.5261 H   0  0  0  0  0  0  0  0  0  0  0  0
    2.4084    0.8955   -0.2258 H   0  0  0  0  0  0  0  0  0  0  0  0
    1.9629   -2.6398   -0.7667 H   0  0  0  0  0  0  0  0  0  0  0  0
   -0.1867   -3.8094   -0.5671 H   0  0  0  0  0  0  0  0  0  0  0  0
   -2.2127   -2.5848    0.1014 H   0  0  0  0  0  0  0  0  0  0  0  0
   -2.1066   -0.1790    0.5765 H   0  0  0  0  0  0  0  0  0  0  0  0
    0.0758    0.8779   -2.1905 H   0  0  0  0  0  0  0  0  0  0  0  0
    0.2441    2.4971   -4.0340 H   0  0  0  0  0  0  0  0  0  0  0  0
    0.4552    4.9002   -3.5517 H   0  0  0  0  0  0  0  0  0  0  0  0
    0.4908    5.6997   -1.2254 H   0  0  0  0  0  0  0  0  0  0  0  0
    0.3155    4.0986    0.6332 H   0  0  0  0  0  0  0  0  0  0  0  0
    0.9209    6.2089    9.9254 H   0  0  0  0  0  0  0  0  0  0  0  0
    1.2202    8.5243   10.7016 H   0  0  0  0  0  0  0  0  0  0  0  0
    3.4418    9.5776   10.6146 H   0  0  0  0  0  0  0  0  0  0  0  0
    5.3765    8.3185    9.7631 H   0  0  0  0  0  0  0  0  0  0  0  0
    5.0971    5.9988    8.9927 H   0  0  0  0  0  0  0  0  0  0  0  0
    4.7781   -1.6971   -2.5958 O   0  5  0  0  0  0  0  0  0  0  0  0
  1  2  1  0  0  0  0
  1 42  1  0  0  0  0
  1 43  1  0  0  0  0
  1 44  1  0  0  0  0
  2  6  1  0  0  0  0
  2  3  2  0  0  0  0
  3  4  1  0  0  0  0
  3 45  1  0  0  0  0
  4  5  2  0  0  0  0
  4 36  1  0  0  0  0
  5  6  1  0  0  0  0
  6  7  1  0  0  0  0
  7  8  1  0  0  0  0
  7 46  1  0  0  0  0
  7 47  1  0  0  0  0
  8  9  1  0  0  0  0
  8 48  1  0  0  0  0
  8 49  1  0  0  0  0
  9 10  1  0  0  0  0
 10 15  2  0  0  0  0
 10 11  1  0  0  0  0
 11 12  2  0  0  0  0
 11 50  1  0  0  0  0
 12 13  1  0  0  0  0
 12 51  1  0  0  0  0
 13 14  2  0  0  0  0
 13 16  1  0  0  0  0
 14 15  1  0  0  0  0
 14 52  1  0  0  0  0
 15 53  1  0  0  0  0
 16 17  1  0  0  0  0
 16 54  1  0  0  0  0
 16 55  1  0  0  0  0
 17 18  1  0  0  0  0
 17 19  1  0  0  0  0
 17 21  1  0  0  0  0
 19 20  2  0  0  0  0
 19 71  1  0  0  0  0
 21 22  1  0  0  0  0
 21 56  1  0  0  0  0
 22 27  2  0  0  0  0
 22 23  1  0  0  0  0
 23 24  2  0  0  0  0
 23 57  1  0  0  0  0
 24 25  1  0  0  0  0
 24 58  1  0  0  0  0
 25 26  2  0  0  0  0
 25 59  1  0  0  0  0
 26 27  1  0  0  0  0
 26 60  1  0  0  0  0
 27 28  1  0  0  0  0
 28 29  2  0  0  0  0
 28 30  1  0  0  0  0
 30 35  2  0  0  0  0
 30 31  1  0  0  0  0
 31 32  2  0  0  0  0
 31 61  1  0  0  0  0
 32 33  1  0  0  0  0
 32 62  1  0  0  0  0
 33 34  2  0  0  0  0
 33 63  1  0  0  0  0
 34 35  1  0  0  0  0
 34 64  1  0  0  0  0
 35 65  1  0  0  0  0
 36 41  2  0  0  0  0
 36 37  1  0  0  0  0
 37 38  2  0  0  0  0
 37 66  1  0  0  0  0
 38 39  1  0  0  0  0
 38 67  1  0  0  0  0
 39 40  2  0  0  0  0
 39 68  1  0  0  0  0
 40 41  1  0  0  0  0
 40 69  1  0  0  0  0
 41 70  1  0  0  0  0
M  CHG  1  71  -1
M  END
$$$$
ZINC03832283
  -OEChem-08230709403D

 69 73  0     1  0  0  0  0  0999 V2000
    3.4395   12.2291    0.3049 C   0  0  0  0  0  0  0  0  0  0  0  0
    3.1502   12.4095    1.7729 C   0  0  0  0  0  0  0  0  0  0  0  0
    2.0712   11.9541    2.4352 C   0  0  0  0  0  0  0  0  0  0  0  0
    2.1882   12.3285    3.7181 N   0  0  0  0  0  0  0  0  0  0  0  0
    3.3117   12.9913    3.8610 C   0  0  0  0  0  0  0  0  0  0  0  0
    3.9240   13.0574    2.6661 O   0  0  0  0  0  0  0  0  0  0  0  0
    3.8163   13.5729    5.1229 C   0  0  0  0  0  0  0  0  0  0  0  0
    3.0794   13.4384    6.3006 C   0  0  0  0  0  0  0  0  0  0  0  0
    3.5589   13.9786    7.4760 C   0  0  0  0  0  0  0  0  0  0  0  0
    4.7617   14.6622    7.4868 C   0  0  0  0  0  0  0  0  0  0  0  0
    5.4942   14.8040    6.3217 C   0  0  0  0  0  0  0  0  0  0  0  0
    5.0289   14.2637    5.1406 C   0  0  0  0  0  0  0  0  0  0  0  0
    0.9308   11.1688    1.8403 C   0  0  0  0  0  0  0  0  0  0  0  0
    1.2412    9.6732    1.9278 C   0  0  0  0  0  0  0  0  0  0  0  0
    0.1599    8.9285    1.3637 O   0  0  0  0  0  0  0  0  0  0  0  0
    0.2776    7.5746    1.3626 C   0  0  0  0  0  0  0  0  0  0  0  0
   -0.7350    6.7896    0.8305 C   0  0  0  0  0  0  0  0  0  0  0  0
   -0.6128    5.4135    0.8302 C   0  0  0  0  0  0  0  0  0  0  0  0
    0.5175    4.8186    1.3595 C   0  0  0  0  0  0  0  0  0  0  0  0
    1.5255    5.5985    1.8955 C   0  0  0  0  0  0  0  0  0  0  0  0
    1.4107    6.9752    1.8931 C   0  0  0  0  0  0  0  0  0  0  0  0
    0.6481    3.3173    1.3578 C   0  0  0  0  0  0  0  0  0  0  0  0
    1.3281    2.8660    0.0636 C   0  0  2  0  0  0  0  0  0  0  0  0
    0.7758    3.2551   -0.7918 H   0  0  0  0  0  0  0  0  0  0  0  0
    1.3485    1.3602    0.0055 C   0  0  0  0  0  0  0  0  0  0  0  0
    2.4022    0.7723   -0.0571 O   0  0  0  0  0  0  0  0  0  0  0  0
    2.7016    3.3746    0.0305 N   0  0  0  0  0  0  0  0  0  0  0  0
    3.3427    3.5628   -1.1858 C   0  0  0  0  0  0  0  0  0  0  0  0
    2.7293    3.1658   -2.3677 C   0  0  0  0  0  0  0  0  0  0  0  0
    3.3689    3.3536   -3.5755 C   0  0  0  0  0  0  0  0  0  0  0  0
    4.6254    3.9386   -3.6220 C   0  0  0  0  0  0  0  0  0  0  0  0
    5.2501    4.3394   -2.4625 C   0  0  0  0  0  0  0  0  0  0  0  0
    4.6134    4.1613   -1.2296 C   0  0  0  0  0  0  0  0  0  0  0  0
    5.2727    4.5929    0.0143 C   0  0  0  0  0  0  0  0  0  0  0  0
    5.3175    5.7736    0.3003 O   0  0  0  0  0  0  0  0  0  0  0  0
    5.8811    3.5886    0.9169 C   0  0  0  0  0  0  0  0  0  0  0  0
    5.9349    2.2378    0.5574 C   0  0  0  0  0  0  0  0  0  0  0  0
    6.5152    1.3359    1.4278 C   0  0  0  0  0  0  0  0  0  0  0  0
    7.0047    1.7318    2.5860 N   0  0  0  0  0  0  0  0  0  0  0  0
    6.9703    2.9938    2.9657 C   0  0  0  0  0  0  0  0  0  0  0  0
    6.4128    3.9634    2.1553 C   0  0  0  0  0  0  0  0  0  0  0  0
    3.0133   13.0620   -0.2544 H   0  0  0  0  0  0  0  0  0  0  0  0
    4.5177   12.2000    0.1480 H   0  0  0  0  0  0  0  0  0  0  0  0
    2.9967   11.2950   -0.0405 H   0  0  0  0  0  0  0  0  0  0  0  0
    2.1382   12.9089    6.2926 H   0  0  0  0  0  0  0  0  0  0  0  0
    2.9918   13.8714    8.3889 H   0  0  0  0  0  0  0  0  0  0  0  0
    5.1305   15.0867    8.4088 H   0  0  0  0  0  0  0  0  0  0  0  0
    6.4326   15.3385    6.3369 H   0  0  0  0  0  0  0  0  0  0  0  0
    5.6019   14.3747    4.2319 H   0  0  0  0  0  0  0  0  0  0  0  0
    0.8003   11.4523    0.7959 H   0  0  0  0  0  0  0  0  0  0  0  0
    0.0155   11.3828    2.3920 H   0  0  0  0  0  0  0  0  0  0  0  0
    1.3718    9.3897    2.9721 H   0  0  0  0  0  0  0  0  0  0  0  0
    2.1566    9.4592    1.3760 H   0  0  0  0  0  0  0  0  0  0  0  0
   -1.6179    7.2539    0.4166 H   0  0  0  0  0  0  0  0  0  0  0  0
   -1.4007    4.8020    0.4158 H   0  0  0  0  0  0  0  0  0  0  0  0
    2.4053    5.1312    2.3126 H   0  0  0  0  0  0  0  0  0  0  0  0
    2.2003    7.5841    2.3078 H   0  0  0  0  0  0  0  0  0  0  0  0
   -0.3419    2.8663    1.4244 H   0  0  0  0  0  0  0  0  0  0  0  0
    1.2484    3.0038    2.2120 H   0  0  0  0  0  0  0  0  0  0  0  0
    3.1628    3.5798    0.8588 H   0  0  0  0  0  0  0  0  0  0  0  0
    1.7508    2.7094   -2.3408 H   0  0  0  0  0  0  0  0  0  0  0  0
    2.8876    3.0432   -4.4911 H   0  0  0  0  0  0  0  0  0  0  0  0
    5.1165    4.0810   -4.5733 H   0  0  0  0  0  0  0  0  0  0  0  0
    6.2286    4.7944   -2.5049 H   0  0  0  0  0  0  0  0  0  0  0  0
    5.5318    1.9056   -0.3879 H   0  0  0  0  0  0  0  0  0  0  0  0
    6.5646    0.2914    1.1578 H   0  0  0  0  0  0  0  0  0  0  0  0
    7.3834    3.2732    3.9236 H   0  0  0  0  0  0  0  0  0  0  0  0
    6.3874    4.9953    2.4730 H   0  0  0  0  0  0  0  0  0  0  0  0
    0.1961    0.6722    0.0234 O   0  5  0  0  0  0  0  0  0  0  0  0
  1  2  1  0  0  0  0
  1 42  1  0  0  0  0
  1 43  1  0  0  0  0
  1 44  1  0  0  0  0
  2  6  1  0  0  0  0
  2  3  2  0  0  0  0
  3  4  1  0  0  0  0
  3 13  1  0  0  0  0
  4  5  2  0  0  0  0
  5  6  1  0  0  0  0
  5  7  1  0  0  0  0
  7 12  2  0  0  0  0
  7  8  1  0  0  0  0
  8  9  2  0  0  0  0
  8 45  1  0  0  0  0
  9 10  1  0  0  0  0
  9 46  1  0  0  0  0
 10 11  2  0  0  0  0
 10 47  1  0  0  0  0
 11 12  1  0  0  0  0
 11 48  1  0  0  0  0
 12 49  1  0  0  0  0
 13 14  1  0  0  0  0
 13 50  1  0  0  0  0
 13 51  1  0  0  0  0
 14 15  1  0  0  0  0
 14 52  1  0  0  0  0
 14 53  1  0  0  0  0
 15 16  1  0  0  0  0
 16 21  2  0  0  0  0
 16 17  1  0  0  0  0
 17 18  2  0  0  0  0
 17 54  1  0  0  0  0
 18 19  1  0  0  0  0
 18 55  1  0  0  0  0
 19 20  2  0  0  0  0
 19 22  1  0  0  0  0
 20 21  1  0  0  0  0
 20 56  1  0  0  0  0
 21 57  1  0  0  0  0
 22 23  1  0  0  0  0
 22 58  1  0  0  0  0
 22 59  1  0  0  0  0
 23 24  1  0  0  0  0
 23 25  1  0  0  0  0
 23 27  1  0  0  0  0
 25 26  2  0  0  0  0
 25 69  1  0  0  0  0
 27 28  1  0  0  0  0
 27 60  1  0  0  0  0
 28 33  2  0  0  0  0
 28 29  1  0  0  0  0
 29 30  2  0  0  0  0
 29 61  1  0  0  0  0
 30 31  1  0  0  0  0
 30 62  1  0  0  0  0
 31 32  2  0  0  0  0
 31 63  1  0  0  0  0
 32 33  1  0  0  0  0
 32 64  1  0  0  0  0
 33 34  1  0  0  0  0
 34 35  2  0  0  0  0
 34 36  1  0  0  0  0
 36 41  2  0  0  0  0
 36 37  1  0  0  0  0
 37 38  2  0  0  0  0
 37 65  1  0  0  0  0
 38 39  1  0  0  0  0
 38 66  1  0  0  0  0
 39 40  2  0  0  0  0
 40 41  1  0  0  0  0
 40 67  1  0  0  0  0
 41 68  1  0  0  0  0
M  CHG  1  69  -1
M  END
$$$$
ZINC03832284
  -OEChem-08230709403D

 70 74  0     1  0  0  0  0  0999 V2000
   -2.3595   -0.7984    4.2518 C   0  0  0  0  0  0  0  0  0  0  0  0
   -2.8928    0.4064    4.9834 C   0  0  0  0  0  0  0  0  0  0  0  0
   -3.5847    0.2643    6.1636 C   0  0  0  0  0  0  0  0  0  0  0  0
   -4.0586    1.3708    6.7938 C   0  0  0  0  0  0  0  0  0  0  0  0
   -3.5187    2.6843    5.7123 S   0  0  0  0  0  0  0  0  0  0  0  0
   -2.6947    1.6814    4.4864 C   0  0  0  0  0  0  0  0  0  0  0  0
   -1.9940    2.1012    3.2640 C   0  0  0  0  0  0  0  0  0  0  0  0
   -1.8486    3.3405    2.8485 N   0  0  0  0  0  0  0  0  0  0  0  0
   -1.1514    3.3290    1.7017 C   0  0  0  0  0  0  0  0  0  0  0  0
   -0.8692    2.0486    1.4027 C   0  0  0  0  0  0  0  0  0  0  0  0
   -1.3935    1.2824    2.3813 O   0  0  0  0  0  0  0  0  0  0  0  0
   -0.1033    1.5605    0.2001 C   0  0  0  0  0  0  0  0  0  0  0  0
   -0.7575    4.5367    0.8910 C   0  0  0  0  0  0  0  0  0  0  0  0
   -1.8562    4.8477   -0.1275 C   0  0  0  0  0  0  0  0  0  0  0  0
   -1.4826    5.9929   -0.8963 O   0  0  0  0  0  0  0  0  0  0  0  0
   -2.3555    6.4053   -1.8528 C   0  0  0  0  0  0  0  0  0  0  0  0
   -3.5444    5.7184   -2.0513 C   0  0  0  0  0  0  0  0  0  0  0  0
   -4.4324    6.1428   -3.0207 C   0  0  0  0  0  0  0  0  0  0  0  0
   -4.1323    7.2448   -3.7999 C   0  0  0  0  0  0  0  0  0  0  0  0
   -2.9455    7.9277   -3.6079 C   0  0  0  0  0  0  0  0  0  0  0  0
   -2.0565    7.5105   -2.6363 C   0  0  0  0  0  0  0  0  0  0  0  0
   -5.1002    7.7022   -4.8606 C   0  0  0  0  0  0  0  0  0  0  0  0
   -4.7789    6.9997   -6.1813 C   0  0  2  0  0  0  0  0  0  0  0  0
   -3.7349    7.1745   -6.4412 H   0  0  0  0  0  0  0  0  0  0  0  0
   -5.6659    7.5467   -7.2699 C   0  0  0  0  0  0  0  0  0  0  0  0
   -6.4160    6.8099   -7.8652 O   0  0  0  0  0  0  0  0  0  0  0  0
   -5.0123    5.5605   -6.0383 N   0  0  0  0  0  0  0  0  0  0  0  0
   -4.3377    4.6635   -6.8550 C   0  0  0  0  0  0  0  0  0  0  0  0
   -3.5282    5.1284   -7.8843 C   0  0  0  0  0  0  0  0  0  0  0  0
   -2.8543    4.2349   -8.6910 C   0  0  0  0  0  0  0  0  0  0  0  0
   -2.9867    2.8692   -8.4907 C   0  0  0  0  0  0  0  0  0  0  0  0
   -3.7886    2.3884   -7.4799 C   0  0  0  0  0  0  0  0  0  0  0  0
   -4.4742    3.2805   -6.6493 C   0  0  0  0  0  0  0  0  0  0  0  0
   -5.3342    2.7734   -5.5662 C   0  0  0  0  0  0  0  0  0  0  0  0
   -4.8347    2.3364   -4.5472 O   0  0  0  0  0  0  0  0  0  0  0  0
   -6.8043    2.7957   -5.7178 C   0  0  0  0  0  0  0  0  0  0  0  0
   -7.3788    3.1953   -6.9264 C   0  0  0  0  0  0  0  0  0  0  0  0
   -8.7513    3.2082   -7.0629 C   0  0  0  0  0  0  0  0  0  0  0  0
   -9.5588    2.8375   -6.0021 C   0  0  0  0  0  0  0  0  0  0  0  0
   -8.9964    2.4460   -4.7999 C   0  0  0  0  0  0  0  0  0  0  0  0
   -7.6252    2.4229   -4.6514 C   0  0  0  0  0  0  0  0  0  0  0  0
   -1.3516   -1.0198    4.6029 H   0  0  0  0  0  0  0  0  0  0  0  0
   -3.0067   -1.6546    4.4417 H   0  0  0  0  0  0  0  0  0  0  0  0
   -2.3344   -0.5920    3.1818 H   0  0  0  0  0  0  0  0  0  0  0  0
   -3.7536   -0.7167    6.5825 H   0  0  0  0  0  0  0  0  0  0  0  0
   -4.6193    1.4384    7.7144 H   0  0  0  0  0  0  0  0  0  0  0  0
   -0.0307    0.4734    0.2323 H   0  0  0  0  0  0  0  0  0  0  0  0
    0.8977    1.9919    0.2072 H   0  0  0  0  0  0  0  0  0  0  0  0
   -0.6229    1.8632   -0.7090 H   0  0  0  0  0  0  0  0  0  0  0  0
   -0.6241    5.3916    1.5539 H   0  0  0  0  0  0  0  0  0  0  0  0
    0.1766    4.3338    0.3672 H   0  0  0  0  0  0  0  0  0  0  0  0
   -1.9896    3.9928   -0.7904 H   0  0  0  0  0  0  0  0  0  0  0  0
   -2.7903    5.0506    0.3963 H   0  0  0  0  0  0  0  0  0  0  0  0
   -3.7773    4.8550   -1.4457 H   0  0  0  0  0  0  0  0  0  0  0  0
   -5.3600    5.6110   -3.1726 H   0  0  0  0  0  0  0  0  0  0  0  0
   -2.7134    8.7883   -4.2178 H   0  0  0  0  0  0  0  0  0  0  0  0
   -1.1295    8.0440   -2.4869 H   0  0  0  0  0  0  0  0  0  0  0  0
   -6.1170    7.4550   -4.5555 H   0  0  0  0  0  0  0  0  0  0  0  0
   -5.0124    8.7807   -4.9919 H   0  0  0  0  0  0  0  0  0  0  0  0
   -5.6382    5.2344   -5.3728 H   0  0  0  0  0  0  0  0  0  0  0  0
   -3.4229    6.1904   -8.0500 H   0  0  0  0  0  0  0  0  0  0  0  0
   -2.2225    4.6016   -9.4865 H   0  0  0  0  0  0  0  0  0  0  0  0
   -2.4583    2.1788   -9.1314 H   0  0  0  0  0  0  0  0  0  0  0  0
   -3.8876    1.3237   -7.3285 H   0  0  0  0  0  0  0  0  0  0  0  0
   -6.7497    3.4895   -7.7535 H   0  0  0  0  0  0  0  0  0  0  0  0
   -9.1968    3.5131   -7.9983 H   0  0  0  0  0  0  0  0  0  0  0  0
  -10.6330    2.8541   -6.1128 H   0  0  0  0  0  0  0  0  0  0  0  0
   -9.6324    2.1575   -3.9761 H   0  0  0  0  0  0  0  0  0  0  0  0
   -7.1875    2.1175   -3.7125 H   0  0  0  0  0  0  0  0  0  0  0  0
   -5.6226    8.8524   -7.5782 O   0  5  0  0  0  0  0  0  0  0  0  0
  1  2  1  0  0  0  0
  1 42  1  0  0  0  0
  1 43  1  0  0  0  0
  1 44  1  0  0  0  0
  2  6  2  0  0  0  0
  2  3  1  0  0  0  0
  3  4  2  0  0  0  0
  3 45  1  0  0  0  0
  4  5  1  0  0  0  0
  4 46  1  0  0  0  0
  5  6  1  0  0  0  0
  6  7  1  0  0  0  0
  7 11  1  0  0  0  0
  7  8  2  0  0  0  0
  8  9  1  0  0  0  0
  9 10  2  0  0  0  0
  9 13  1  0  0  0  0
 10 11  1  0  0  0  0
 10 12  1  0  0  0  0
 12 47  1  0  0  0  0
 12 48  1  0  0  0  0
 12 49  1  0  0  0  0
 13 14  1  0  0  0  0
 13 50  1  0  0  0  0
 13 51  1  0  0  0  0
 14 15  1  0  0  0  0
 14 52  1  0  0  0  0
 14 53  1  0  0  0  0
 15 16  1  0  0  0  0
 16 21  2  0  0  0  0
 16 17  1  0  0  0  0
 17 18  2  0  0  0  0
 17 54  1  0  0  0  0
 18 19  1  0  0  0  0
 18 55  1  0  0  0  0
 19 20  2  0  0  0  0
 19 22  1  0  0  0  0
 20 21  1  0  0  0  0
 20 56  1  0  0  0  0
 21 57  1  0  0  0  0
 22 23  1  0  0  0  0
 22 58  1  0  0  0  0
 22 59  1  0  0  0  0
 23 24  1  0  0  0  0
 23 25  1  0  0  0  0
 23 27  1  0  0  0  0
 25 26  2  0  0  0  0
 25 70  1  0  0  0  0
 27 28  1  0  0  0  0
 27 60  1  0  0  0  0
 28 33  2  0  0  0  0
 28 29  1  0  0  0  0
 29 30  2  0  0  0  0
 29 61  1  0  0  0  0
 30 31  1  0  0  0  0
 30 62  1  0  0  0  0
 31 32  2  0  0  0  0
 31 63  1  0  0  0  0
 32 33  1  0  0  0  0
 32 64  1  0  0  0  0
 33 34  1  0  0  0  0
 34 35  2  0  0  0  0
 34 36  1  0  0  0  0
 36 41  2  0  0  0  0
 36 37  1  0  0  0  0
 37 38  2  0  0  0  0
 37 65  1  0  0  0  0
 38 39  1  0  0  0  0
 38 66  1  0  0  0  0
 39 40  2  0  0  0  0
 39 67  1  0  0  0  0
 40 41  1  0  0  0  0
 40 68  1  0  0  0  0
 41 69  1  0  0  0  0
M  CHG  1  70  -1
M  END
$$$$
ZINC03832285
  -OEChem-08230709403D

 71 75  0     1  0  0  0  0  0999 V2000
    5.3138   -4.9436   -5.1122 C   0  0  0  0  0  0  0  0  0  0  0  0
    5.6349   -3.4936   -4.8563 C   0  0  0  0  0  0  0  0  0  0  0  0
    6.7257   -2.9090   -5.4659 C   0  0  0  0  0  0  0  0  0  0  0  0
    7.0213   -1.5776   -5.2328 C   0  0  0  0  0  0  0  0  0  0  0  0
    6.2265   -0.8234   -4.3873 C   0  0  0  0  0  0  0  0  0  0  0  0
    5.1299   -1.3937   -3.7755 C   0  0  0  0  0  0  0  0  0  0  0  0
    4.8287   -2.7386   -4.0022 C   0  0  0  0  0  0  0  0  0  0  0  0
    3.6584   -3.3581   -3.3455 C   0  0  0  0  0  0  0  0  0  0  0  0
    3.7097   -3.6575   -2.1680 O   0  0  0  0  0  0  0  0  0  0  0  0
    2.4299   -3.6129   -4.1174 C   0  0  0  0  0  0  0  0  0  0  0  0
    2.4023   -3.3751   -5.4954 C   0  0  0  0  0  0  0  0  0  0  0  0
    1.2490   -3.6100   -6.2098 C   0  0  0  0  0  0  0  0  0  0  0  0
    0.1139   -4.0868   -5.5718 C   0  0  0  0  0  0  0  0  0  0  0  0
    0.1258   -4.3317   -4.2142 C   0  0  0  0  0  0  0  0  0  0  0  0
    1.2799   -4.1015   -3.4753 C   0  0  0  0  0  0  0  0  0  0  0  0
    1.2946   -4.3475   -2.1093 N   0  0  0  0  0  0  0  0  0  0  0  0
    0.0576   -4.7210   -1.4189 C   0  0  2  0  0  0  0  0  0  0  0  0
   -0.7837   -4.1963   -1.8715 H   0  0  0  0  0  0  0  0  0  0  0  0
    0.1625   -4.3377    0.0586 C   0  0  0  0  0  0  0  0  0  0  0  0
    0.2518   -2.8386    0.1835 C   0  0  0  0  0  0  0  0  0  0  0  0
   -0.9017   -2.0865    0.3086 C   0  0  0  0  0  0  0  0  0  0  0  0
   -0.8226   -0.7121    0.4233 C   0  0  0  0  0  0  0  0  0  0  0  0
    0.4157   -0.0865    0.4129 C   0  0  0  0  0  0  0  0  0  0  0  0
    1.5712   -0.8428    0.2816 C   0  0  0  0  0  0  0  0  0  0  0  0
    1.4870   -2.2174    0.1725 C   0  0  0  0  0  0  0  0  0  0  0  0
    0.4962    1.2654    0.5256 O   0  0  0  0  0  0  0  0  0  0  0  0
    1.8039    1.8412    0.5074 C   0  0  0  0  0  0  0  0  0  0  0  0
    1.6939    3.3611    0.6445 C   0  0  0  0  0  0  0  0  0  0  0  0
    1.1422    3.6940    1.9602 N   0  0  0  0  0  0  0  0  0  0  0  0
   -0.3068    3.8190    2.1366 C   0  0  0  0  0  0  0  0  0  0  0  0
    1.9852    3.8893    3.0306 C   0  0  0  0  0  0  0  0  0  0  0  0
    3.2897    3.7967    2.9844 N   0  0  0  0  0  0  0  0  0  0  0  0
    3.7899    4.0565    4.2237 C   0  0  0  0  0  0  0  0  0  0  0  0
    5.0808    4.1014    4.7518 C   0  0  0  0  0  0  0  0  0  0  0  0
    5.2636    4.3951    6.0854 C   0  0  0  0  0  0  0  0  0  0  0  0
    4.1732    4.6459    6.9042 C   0  0  0  0  0  0  0  0  0  0  0  0
    2.8912    4.6047    6.3944 C   0  0  0  0  0  0  0  0  0  0  0  0
    2.6894    4.3110    5.0557 C   0  0  0  0  0  0  0  0  0  0  0  0
    1.5883    4.1976    4.2778 O   0  0  0  0  0  0  0  0  0  0  0  0
   -0.1549   -6.2082   -1.5382 C   0  0  0  0  0  0  0  0  0  0  0  0
    0.6449   -6.8865   -2.1384 O   0  0  0  0  0  0  0  0  0  0  0  0
    4.5776   -5.0170   -5.9127 H   0  0  0  0  0  0  0  0  0  0  0  0
    6.2220   -5.4707   -5.4044 H   0  0  0  0  0  0  0  0  0  0  0  0
    4.9096   -5.3919   -4.2046 H   0  0  0  0  0  0  0  0  0  0  0  0
    7.3501   -3.4918   -6.1268 H   0  0  0  0  0  0  0  0  0  0  0  0
    7.8760   -1.1247   -5.7131 H   0  0  0  0  0  0  0  0  0  0  0  0
    6.4629    0.2153   -4.2097 H   0  0  0  0  0  0  0  0  0  0  0  0
    4.5079   -0.8029   -3.1194 H   0  0  0  0  0  0  0  0  0  0  0  0
    3.2833   -3.0037   -5.9977 H   0  0  0  0  0  0  0  0  0  0  0  0
    1.2282   -3.4215   -7.2731 H   0  0  0  0  0  0  0  0  0  0  0  0
   -0.7857   -4.2674   -6.1415 H   0  0  0  0  0  0  0  0  0  0  0  0
   -0.7627   -4.7030   -3.7253 H   0  0  0  0  0  0  0  0  0  0  0  0
    2.1239   -4.2722   -1.6118 H   0  0  0  0  0  0  0  0  0  0  0  0
    1.0548   -4.7920    0.4893 H   0  0  0  0  0  0  0  0  0  0  0  0
   -0.7196   -4.6947    0.5901 H   0  0  0  0  0  0  0  0  0  0  0  0
   -1.8654   -2.5740    0.3169 H   0  0  0  0  0  0  0  0  0  0  0  0
   -1.7238   -0.1252    0.5213 H   0  0  0  0  0  0  0  0  0  0  0  0
    2.5361   -0.3578    0.2687 H   0  0  0  0  0  0  0  0  0  0  0  0
    2.3866   -2.8070    0.0747 H   0  0  0  0  0  0  0  0  0  0  0  0
    2.3879    1.4428    1.3370 H   0  0  0  0  0  0  0  0  0  0  0  0
    2.2957    1.5960   -0.4340 H   0  0  0  0  0  0  0  0  0  0  0  0
    2.6829    3.8077    0.5416 H   0  0  0  0  0  0  0  0  0  0  0  0
    1.0370    3.7495   -0.1338 H   0  0  0  0  0  0  0  0  0  0  0  0
   -0.7246    2.8498    2.4089 H   0  0  0  0  0  0  0  0  0  0  0  0
   -0.5157    4.5398    2.9271 H   0  0  0  0  0  0  0  0  0  0  0  0
   -0.7581    4.1604    1.2050 H   0  0  0  0  0  0  0  0  0  0  0  0
    5.9331    3.9070    4.1177 H   0  0  0  0  0  0  0  0  0  0  0  0
    6.2621    4.4304    6.4953 H   0  0  0  0  0  0  0  0  0  0  0  0
    4.3281    4.8748    7.9482 H   0  0  0  0  0  0  0  0  0  0  0  0
    2.0466    4.8009    7.0383 H   0  0  0  0  0  0  0  0  0  0  0  0
   -1.2326   -6.7792   -0.9778 O   0  5  0  0  0  0  0  0  0  0  0  0
  1  2  1  0  0  0  0
  1 42  1  0  0  0  0
  1 43  1  0  0  0  0
  1 44  1  0  0  0  0
  2  7  2  0  0  0  0
  2  3  1  0  0  0  0
  3  4  2  0  0  0  0
  3 45  1  0  0  0  0
  4  5  1  0  0  0  0
  4 46  1  0  0  0  0
  5  6  2  0  0  0  0
  5 47  1  0  0  0  0
  6  7  1  0  0  0  0
  6 48  1  0  0  0  0
  7  8  1  0  0  0  0
  8  9  2  0  0  0  0
  8 10  1  0  0  0  0
 10 15  2  0  0  0  0
 10 11  1  0  0  0  0
 11 12  2  0  0  0  0
 11 49  1  0  0  0  0
 12 13  1  0  0  0  0
 12 50  1  0  0  0  0
 13 14  2  0  0  0  0
 13 51  1  0  0  0  0
 14 15  1  0  0  0  0
 14 52  1  0  0  0  0
 15 16  1  0  0  0  0
 16 17  1  0  0  0  0
 16 53  1  0  0  0  0
 17 18  1  0  0  0  0
 17 19  1  0  0  0  0
 17 40  1  0  0  0  0
 19 20  1  0  0  0  0
 19 54  1  0  0  0  0
 19 55  1  0  0  0  0
 20 25  2  0  0  0  0
 20 21  1  0  0  0  0
 21 22  2  0  0  0  0
 21 56  1  0  0  0  0
 22 23  1  0  0  0  0
 22 57  1  0  0  0  0
 23 24  2  0  0  0  0
 23 26  1  0  0  0  0
 24 25  1  0  0  0  0
 24 58  1  0  0  0  0
 25 59  1  0  0  0  0
 26 27  1  0  0  0  0
 27 28  1  0  0  0  0
 27 60  1  0  0  0  0
 27 61  1  0  0  0  0
 28 29  1  0  0  0  0
 28 62  1  0  0  0  0
 28 63  1  0  0  0  0
 29 30  1  0  0  0  0
 29 31  1  0  0  0  0
 30 64  1  0  0  0  0
 30 65  1  0  0  0  0
 30 66  1  0  0  0  0
 31 39  1  0  0  0  0
 31 32  2  0  0  0  0
 32 33  1  0  0  0  0
 33 38  2  0  0  0  0
 33 34  1  0  0  0  0
 34 35  2  0  0  0  0
 34 67  1  0  0  0  0
 35 36  1  0  0  0  0
 35 68  1  0  0  0  0
 36 37  2  0  0  0  0
 36 69  1  0  0  0  0
 37 38  1  0  0  0  0
 37 70  1  0  0  0  0
 38 39  1  0  0  0  0
 40 41  2  0  0  0  0
 40 71  1  0  0  0  0
M  CHG  1  71  -1
M  END
$$$$
ZINC03832286
  -OEChem-08230709403D

 65 69  0     1  0  0  0  0  0999 V2000
   -2.4951    1.4050   -1.8250 C   0  0  0  0  0  0  0  0  0  0  0  0
   -1.8112    0.1144   -1.7109 N   0  0  0  0  0  0  0  0  0  0  0  0
   -1.2281   -0.2950   -0.4308 C   0  0  0  0  0  0  0  0  0  0  0  0
    0.2208    0.1902   -0.3520 C   0  0  0  0  0  0  0  0  0  0  0  0
    0.2446    1.6189   -0.3386 O   0  0  0  0  0  0  0  0  0  0  0  0
    1.4640    2.2151   -0.2706 C   0  0  0  0  0  0  0  0  0  0  0  0
    2.6136    1.4408   -0.2122 C   0  0  0  0  0  0  0  0  0  0  0  0
    3.8523    2.0492   -0.1495 C   0  0  0  0  0  0  0  0  0  0  0  0
    3.9462    3.4286   -0.1324 C   0  0  0  0  0  0  0  0  0  0  0  0
    2.8016    4.2024   -0.1847 C   0  0  0  0  0  0  0  0  0  0  0  0
    1.5609    3.5989   -0.2538 C   0  0  0  0  0  0  0  0  0  0  0  0
    5.2984    4.0896   -0.0571 C   0  0  0  0  0  0  0  0  0  0  0  0
    5.6818    4.3010    1.4090 C   0  0  2  0  0  0  0  0  0  0  0  0
    4.8950    4.8622    1.9130 H   0  0  0  0  0  0  0  0  0  0  0  0
    6.9750    5.0711    1.4840 C   0  0  0  0  0  0  0  0  0  0  0  0
    7.9377    4.5836    2.0274 O   0  0  0  0  0  0  0  0  0  0  0  0
    5.8492    3.0005    2.0623 N   0  0  0  0  0  0  0  0  0  0  0  0
    5.6825    2.8871    3.4364 C   0  0  0  0  0  0  0  0  0  0  0  0
    5.4694    4.0214    4.2100 C   0  0  0  0  0  0  0  0  0  0  0  0
    5.3041    3.9061    5.5749 C   0  0  0  0  0  0  0  0  0  0  0  0
    5.3484    2.6621    6.1850 C   0  0  0  0  0  0  0  0  0  0  0  0
    5.5585    1.5261    5.4350 C   0  0  0  0  0  0  0  0  0  0  0  0
    5.7226    1.6252    4.0505 C   0  0  0  0  0  0  0  0  0  0  0  0
    5.9418    0.4127    3.2407 C   0  0  0  0  0  0  0  0  0  0  0  0
    5.0109   -0.3317    2.9952 O   0  0  0  0  0  0  0  0  0  0  0  0
    7.2864    0.1026    2.7293 C   0  0  0  0  0  0  0  0  0  0  0  0
    7.5164   -1.0089    1.8406 C   0  0  0  0  0  0  0  0  0  0  0  0
    8.7824   -1.2115    1.4269 C   0  0  0  0  0  0  0  0  0  0  0  0
    9.6850    0.0964    2.2311 S   0  0  0  0  0  0  0  0  0  0  0  0
    8.3836    0.8668    3.0746 C   0  0  0  0  0  0  0  0  0  0  0  0
   -1.7166   -0.7136   -2.8065 C   0  0  0  0  0  0  0  0  0  0  0  0
   -1.1247   -1.8806   -2.8155 N   0  0  0  0  0  0  0  0  0  0  0  0
   -1.2302   -2.4137   -4.0638 C   0  0  0  0  0  0  0  0  0  0  0  0
   -0.7977   -3.6084   -4.6410 C   0  0  0  0  0  0  0  0  0  0  0  0
   -1.0616   -3.8601   -5.9695 C   0  0  0  0  0  0  0  0  0  0  0  0
   -1.7535   -2.9340   -6.7349 C   0  0  0  0  0  0  0  0  0  0  0  0
   -2.1868   -1.7485   -6.1763 C   0  0  0  0  0  0  0  0  0  0  0  0
   -1.9299   -1.4794   -4.8418 C   0  0  0  0  0  0  0  0  0  0  0  0
   -2.2139   -0.4387   -4.0252 O   0  0  0  0  0  0  0  0  0  0  0  0
   -1.7771    2.1722   -2.1146 H   0  0  0  0  0  0  0  0  0  0  0  0
   -3.2776    1.3360   -2.5806 H   0  0  0  0  0  0  0  0  0  0  0  0
   -2.9392    1.6669   -0.8647 H   0  0  0  0  0  0  0  0  0  0  0  0
   -1.2521   -1.3819   -0.3517 H   0  0  0  0  0  0  0  0  0  0  0  0
   -1.8025    0.1416    0.3862 H   0  0  0  0  0  0  0  0  0  0  0  0
    0.7736   -0.1743   -1.2178 H   0  0  0  0  0  0  0  0  0  0  0  0
    0.6820   -0.1895    0.5597 H   0  0  0  0  0  0  0  0  0  0  0  0
    2.5405    0.3633   -0.2206 H   0  0  0  0  0  0  0  0  0  0  0  0
    4.7479    1.4469   -0.1092 H   0  0  0  0  0  0  0  0  0  0  0  0
    2.8776    5.2797   -0.1712 H   0  0  0  0  0  0  0  0  0  0  0  0
    0.6672    4.2038   -0.2950 H   0  0  0  0  0  0  0  0  0  0  0  0
    6.0411    3.4536   -0.5388 H   0  0  0  0  0  0  0  0  0  0  0  0
    5.2606    5.0531   -0.5653 H   0  0  0  0  0  0  0  0  0  0  0  0
    6.0766    2.2186    1.5352 H   0  0  0  0  0  0  0  0  0  0  0  0
    5.4335    4.9943    3.7425 H   0  0  0  0  0  0  0  0  0  0  0  0
    5.1387    4.7908    6.1719 H   0  0  0  0  0  0  0  0  0  0  0  0
    5.2177    2.5833    7.2541 H   0  0  0  0  0  0  0  0  0  0  0  0
    5.5925    0.5596    5.9157 H   0  0  0  0  0  0  0  0  0  0  0  0
    6.7093   -1.6514    1.5209 H   0  0  0  0  0  0  0  0  0  0  0  0
    9.1584   -1.9800    0.7678 H   0  0  0  0  0  0  0  0  0  0  0  0
    8.4212    1.7345    3.7165 H   0  0  0  0  0  0  0  0  0  0  0  0
   -0.2587   -4.3329   -4.0485 H   0  0  0  0  0  0  0  0  0  0  0  0
   -0.7277   -4.7845   -6.4174 H   0  0  0  0  0  0  0  0  0  0  0  0
   -1.9545   -3.1415   -7.7755 H   0  0  0  0  0  0  0  0  0  0  0  0
   -2.7249   -1.0316   -6.7787 H   0  0  0  0  0  0  0  0  0  0  0  0
    7.0573    6.2985    0.9470 O   0  5  0  0  0  0  0  0  0  0  0  0
  1  2  1  0  0  0  0
  1 40  1  0  0  0  0
  1 41  1  0  0  0  0
  1 42  1  0  0  0  0
  2  3  1  0  0  0  0
  2 31  1  0  0  0  0
  3  4  1  0  0  0  0
  3 43  1  0  0  0  0
  3 44  1  0  0  0  0
  4  5  1  0  0  0  0
  4 45  1  0  0  0  0
  4 46  1  0  0  0  0
  5  6  1  0  0  0  0
  6 11  2  0  0  0  0
  6  7  1  0  0  0  0
  7  8  2  0  0  0  0
  7 47  1  0  0  0  0
  8  9  1  0  0  0  0
  8 48  1  0  0  0  0
  9 10  2  0  0  0  0
  9 12  1  0  0  0  0
 10 11  1  0  0  0  0
 10 49  1  0  0  0  0
 11 50  1  0  0  0  0
 12 13  1  0  0  0  0
 12 51  1  0  0  0  0
 12 52  1  0  0  0  0
 13 14  1  0  0  0  0
 13 15  1  0  0  0  0
 13 17  1  0  0  0  0
 15 16  2  0  0  0  0
 15 65  1  0  0  0  0
 17 18  1  0  0  0  0
 17 53  1  0  0  0  0
 18 23  2  0  0  0  0
 18 19  1  0  0  0  0
 19 20  2  0  0  0  0
 19 54  1  0  0  0  0
 20 21  1  0  0  0  0
 20 55  1  0  0  0  0
 21 22  2  0  0  0  0
 21 56  1  0  0  0  0
 22 23  1  0  0  0  0
 22 57  1  0  0  0  0
 23 24  1  0  0  0  0
 24 25  2  0  0  0  0
 24 26  1  0  0  0  0
 26 30  2  0  0  0  0
 26 27  1  0  0  0  0
 27 28  2  0  0  0  0
 27 58  1  0  0  0  0
 28 29  1  0  0  0  0
 28 59  1  0  0  0  0
 29 30  1  0  0  0  0
 30 60  1  0  0  0  0
 31 39  1  0  0  0  0
 31 32  2  0  0  0  0
 32 33  1  0  0  0  0
 33 38  2  0  0  0  0
 33 34  1  0  0  0  0
 34 35  2  0  0  0  0
 34 61  1  0  0  0  0
 35 36  1  0  0  0  0
 35 62  1  0  0  0  0
 36 37  2  0  0  0  0
 36 63  1  0  0  0  0
 37 38  1  0  0  0  0
 37 64  1  0  0  0  0
 38 39  1  0  0  0  0
M  CHG  1  65  -1
M  END
$$$$
ZINC03832287
  -OEChem-08230709403D

 71 75  0     1  0  0  0  0  0999 V2000
    8.9558   -2.4367    0.4668 C   0  0  0  0  0  0  0  0  0  0  0  0
    8.7474   -1.2676    1.3946 C   0  0  0  0  0  0  0  0  0  0  0  0
    9.8240   -0.4819    1.7678 C   0  0  0  0  0  0  0  0  0  0  0  0
    9.6416    0.5937    2.6189 C   0  0  0  0  0  0  0  0  0  0  0  0
    8.3827    0.8930    3.0972 C   0  0  0  0  0  0  0  0  0  0  0  0
    7.2931    0.1014    2.7290 C   0  0  0  0  0  0  0  0  0  0  0  0
    7.4844   -0.9828    1.8696 C   0  0  0  0  0  0  0  0  0  0  0  0
    5.9422    0.4130    3.2416 C   0  0  0  0  0  0  0  0  0  0  0  0
    5.0123   -0.3315    2.9970 O   0  0  0  0  0  0  0  0  0  0  0  0
    5.7223    1.6254    4.0488 C   0  0  0  0  0  0  0  0  0  0  0  0
    5.5580    1.5285    5.4343 C   0  0  0  0  0  0  0  0  0  0  0  0
    5.3481    2.6653    6.1822 C   0  0  0  0  0  0  0  0  0  0  0  0
    5.3026    3.9087    5.5701 C   0  0  0  0  0  0  0  0  0  0  0  0
    5.4675    4.0224    4.2052 C   0  0  0  0  0  0  0  0  0  0  0  0
    5.6809    2.8873    3.4327 C   0  0  0  0  0  0  0  0  0  0  0  0
    5.8467    2.9989    2.0591 N   0  0  0  0  0  0  0  0  0  0  0  0
    5.6785    4.2986    1.4042 C   0  0  2  0  0  0  0  0  0  0  0  0
    4.8920    4.8603    1.9081 H   0  0  0  0  0  0  0  0  0  0  0  0
    5.2942    4.0853   -0.0613 C   0  0  0  0  0  0  0  0  0  0  0  0
    3.9421    3.4240   -0.1349 C   0  0  0  0  0  0  0  0  0  0  0  0
    2.7973    4.1976   -0.1874 C   0  0  0  0  0  0  0  0  0  0  0  0
    1.5567    3.5937   -0.2549 C   0  0  0  0  0  0  0  0  0  0  0  0
    1.4600    2.2099   -0.2700 C   0  0  0  0  0  0  0  0  0  0  0  0
    2.6098    1.4358   -0.2114 C   0  0  0  0  0  0  0  0  0  0  0  0
    3.8484    2.0446   -0.1502 C   0  0  0  0  0  0  0  0  0  0  0  0
    0.2406    1.6134   -0.3364 O   0  0  0  0  0  0  0  0  0  0  0  0
    0.2171    0.1847   -0.3481 C   0  0  0  0  0  0  0  0  0  0  0  0
   -1.2318   -0.3009   -0.4253 C   0  0  0  0  0  0  0  0  0  0  0  0
   -1.8158    0.1068   -1.7055 N   0  0  0  0  0  0  0  0  0  0  0  0
   -2.4999    1.3972   -1.8207 C   0  0  0  0  0  0  0  0  0  0  0  0
   -1.7218   -0.7224   -2.8001 C   0  0  0  0  0  0  0  0  0  0  0  0
   -1.1297   -1.8893   -2.8081 N   0  0  0  0  0  0  0  0  0  0  0  0
   -1.2359   -2.4241   -4.0557 C   0  0  0  0  0  0  0  0  0  0  0  0
   -0.8036   -3.6193   -4.6317 C   0  0  0  0  0  0  0  0  0  0  0  0
   -1.0683   -3.8727   -5.9598 C   0  0  0  0  0  0  0  0  0  0  0  0
   -1.7609   -2.9477   -6.7258 C   0  0  0  0  0  0  0  0  0  0  0  0
   -2.1940   -1.7616   -6.1683 C   0  0  0  0  0  0  0  0  0  0  0  0
   -1.9363   -1.4908   -4.8343 C   0  0  0  0  0  0  0  0  0  0  0  0
   -2.2199   -0.4492   -4.0188 O   0  0  0  0  0  0  0  0  0  0  0  0
    6.9717    5.0690    1.4774 C   0  0  0  0  0  0  0  0  0  0  0  0
    7.9349    4.5823    2.0208 O   0  0  0  0  0  0  0  0  0  0  0  0
    8.8400   -2.1064   -0.5655 H   0  0  0  0  0  0  0  0  0  0  0  0
    9.9587   -2.8393    0.6092 H   0  0  0  0  0  0  0  0  0  0  0  0
    8.2194   -3.2100    0.6857 H   0  0  0  0  0  0  0  0  0  0  0  0
   10.8109   -0.7091    1.3927 H   0  0  0  0  0  0  0  0  0  0  0  0
   10.4860    1.2027    2.9061 H   0  0  0  0  0  0  0  0  0  0  0  0
    8.2409    1.7356    3.7578 H   0  0  0  0  0  0  0  0  0  0  0  0
    6.6453   -1.5969    1.5779 H   0  0  0  0  0  0  0  0  0  0  0  0
    5.5924    0.5627    5.9166 H   0  0  0  0  0  0  0  0  0  0  0  0
    5.2177    2.5881    7.2515 H   0  0  0  0  0  0  0  0  0  0  0  0
    5.1367    4.7941    6.1659 H   0  0  0  0  0  0  0  0  0  0  0  0
    5.4310    4.9948    3.7365 H   0  0  0  0  0  0  0  0  0  0  0  0
    6.0738    2.2164    1.5327 H   0  0  0  0  0  0  0  0  0  0  0  0
    6.0367    3.4489   -0.5427 H   0  0  0  0  0  0  0  0  0  0  0  0
    5.2559    5.0482   -0.5707 H   0  0  0  0  0  0  0  0  0  0  0  0
    2.8731    5.2748   -0.1753 H   0  0  0  0  0  0  0  0  0  0  0  0
    0.6628    4.1984   -0.2963 H   0  0  0  0  0  0  0  0  0  0  0  0
    2.5369    0.3583   -0.2185 H   0  0  0  0  0  0  0  0  0  0  0  0
    4.7441    1.4425   -0.1098 H   0  0  0  0  0  0  0  0  0  0  0  0
    0.7694   -0.1808   -1.2138 H   0  0  0  0  0  0  0  0  0  0  0  0
    0.6790   -0.1938    0.5638 H   0  0  0  0  0  0  0  0  0  0  0  0
   -1.2555   -1.3877   -0.3448 H   0  0  0  0  0  0  0  0  0  0  0  0
   -1.8056    0.1366    0.3916 H   0  0  0  0  0  0  0  0  0  0  0  0
   -1.7823    2.1642   -2.1117 H   0  0  0  0  0  0  0  0  0  0  0  0
   -3.2830    1.3271   -2.5757 H   0  0  0  0  0  0  0  0  0  0  0  0
   -2.9435    1.6602   -0.8604 H   0  0  0  0  0  0  0  0  0  0  0  0
   -0.2641   -4.3430   -4.0387 H   0  0  0  0  0  0  0  0  0  0  0  0
   -0.7346   -4.7976   -6.4067 H   0  0  0  0  0  0  0  0  0  0  0  0
   -1.9626   -3.1565   -7.7660 H   0  0  0  0  0  0  0  0  0  0  0  0
   -2.7327   -1.0455   -6.7713 H   0  0  0  0  0  0  0  0  0  0  0  0
    7.0534    6.2958    0.9389 O   0  5  0  0  0  0  0  0  0  0  0  0
  1  2  1  0  0  0  0
  1 42  1  0  0  0  0
  1 43  1  0  0  0  0
  1 44  1  0  0  0  0
  2  7  2  0  0  0  0
  2  3  1  0  0  0  0
  3  4  2  0  0  0  0
  3 45  1  0  0  0  0
  4  5  1  0  0  0  0
  4 46  1  0  0  0  0
  5  6  2  0  0  0  0
  5 47  1  0  0  0  0
  6  7  1  0  0  0  0
  6  8  1  0  0  0  0
  7 48  1  0  0  0  0
  8  9  2  0  0  0  0
  8 10  1  0  0  0  0
 10 15  2  0  0  0  0
 10 11  1  0  0  0  0
 11 12  2  0  0  0  0
 11 49  1  0  0  0  0
 12 13  1  0  0  0  0
 12 50  1  0  0  0  0
 13 14  2  0  0  0  0
 13 51  1  0  0  0  0
 14 15  1  0  0  0  0
 14 52  1  0  0  0  0
 15 16  1  0  0  0  0
 16 17  1  0  0  0  0
 16 53  1  0  0  0  0
 17 18  1  0  0  0  0
 17 19  1  0  0  0  0
 17 40  1  0  0  0  0
 19 20  1  0  0  0  0
 19 54  1  0  0  0  0
 19 55  1  0  0  0  0
 20 25  2  0  0  0  0
 20 21  1  0  0  0  0
 21 22  2  0  0  0  0
 21 56  1  0  0  0  0
 22 23  1  0  0  0  0
 22 57  1  0  0  0  0
 23 24  2  0  0  0  0
 23 26  1  0  0  0  0
 24 25  1  0  0  0  0
 24 58  1  0  0  0  0
 25 59  1  0  0  0  0
 26 27  1  0  0  0  0
 27 28  1  0  0  0  0
 27 60  1  0  0  0  0
 27 61  1  0  0  0  0
 28 29  1  0  0  0  0
 28 62  1  0  0  0  0
 28 63  1  0  0  0  0
 29 30  1  0  0  0  0
 29 31  1  0  0  0  0
 30 64  1  0  0  0  0
 30 65  1  0  0  0  0
 30 66  1  0  0  0  0
 31 39  1  0  0  0  0
 31 32  2  0  0  0  0
 32 33  1  0  0  0  0
 33 38  2  0  0  0  0
 33 34  1  0  0  0  0
 34 35  2  0  0  0  0
 34 67  1  0  0  0  0
 35 36  1  0  0  0  0
 35 68  1  0  0  0  0
 36 37  2  0  0  0  0
 36 69  1  0  0  0  0
 37 38  1  0  0  0  0
 37 70  1  0  0  0  0
 38 39  1  0  0  0  0
 40 41  2  0  0  0  0
 40 71  1  0  0  0  0
M  CHG  1  71  -1
M  END
$$$$
ZINC03832288
  -OEChem-08230709403D

 65 69  0     1  0  0  0  0  0999 V2000
   -3.0275    7.1456   -9.0806 C   0  0  0  0  0  0  0  0  0  0  0  0
   -1.6641    6.8111   -8.6617 N   0  0  0  0  0  0  0  0  0  0  0  0
   -1.3910    5.5247   -8.0159 C   0  0  0  0  0  0  0  0  0  0  0  0
   -1.5464    5.6715   -6.5009 C   0  0  0  0  0  0  0  0  0  0  0  0
   -2.9086    5.9697   -6.1885 O   0  0  0  0  0  0  0  0  0  0  0  0
   -3.2191    6.1323   -4.8755 C   0  0  0  0  0  0  0  0  0  0  0  0
   -4.5227    6.4235   -4.5007 C   0  0  0  0  0  0  0  0  0  0  0  0
   -4.8357    6.5887   -3.1653 C   0  0  0  0  0  0  0  0  0  0  0  0
   -3.8511    6.4637   -2.2027 C   0  0  0  0  0  0  0  0  0  0  0  0
   -2.5500    6.1791   -2.5741 C   0  0  0  0  0  0  0  0  0  0  0  0
   -2.2329    6.0078   -3.9077 C   0  0  0  0  0  0  0  0  0  0  0  0
   -4.1954    6.6440   -0.7467 C   0  0  0  0  0  0  0  0  0  0  0  0
   -4.5960    5.2949   -0.1465 C   0  0  2  0  0  0  0  0  0  0  0  0
   -5.4054    4.8618   -0.7341 H   0  0  0  0  0  0  0  0  0  0  0  0
   -5.0575    5.4943    1.2742 C   0  0  0  0  0  0  0  0  0  0  0  0
   -4.4824    4.9386    2.1799 O   0  0  0  0  0  0  0  0  0  0  0  0
   -3.4429    4.3913   -0.1631 N   0  0  0  0  0  0  0  0  0  0  0  0
   -3.6383    3.0161   -0.1743 C   0  0  0  0  0  0  0  0  0  0  0  0
   -4.9192    2.4937   -0.3041 C   0  0  0  0  0  0  0  0  0  0  0  0
   -5.1112    1.1274   -0.3091 C   0  0  0  0  0  0  0  0  0  0  0  0
   -4.0313    0.2663   -0.1906 C   0  0  0  0  0  0  0  0  0  0  0  0
   -2.7535    0.7653   -0.0662 C   0  0  0  0  0  0  0  0  0  0  0  0
   -2.5421    2.1467   -0.0593 C   0  0  0  0  0  0  0  0  0  0  0  0
   -1.1763    2.6879    0.0740 C   0  0  0  0  0  0  0  0  0  0  0  0
   -1.0064    3.8868    0.2029 O   0  0  0  0  0  0  0  0  0  0  0  0
   -0.0245    1.7831    0.0513 C   0  0  0  0  0  0  0  0  0  0  0  0
    1.3292    2.0896    0.0642 C   0  0  0  0  0  0  0  0  0  0  0  0
    2.2079    1.0367    0.0308 C   0  0  0  0  0  0  0  0  0  0  0  0
    1.7220   -0.2325   -0.0124 C   0  0  0  0  0  0  0  0  0  0  0  0
    0.0041    0.0003   -0.0081 S   0  0  0  0  0  0  0  0  0  0  0  0
   -0.6396    7.7054   -8.8749 C   0  0  0  0  0  0  0  0  0  0  0  0
    0.6091    7.5098   -8.5360 N   0  0  0  0  0  0  0  0  0  0  0  0
    1.3369    8.6001   -8.9035 C   0  0  0  0  0  0  0  0  0  0  0  0
    2.6866    8.9383   -8.7969 C   0  0  0  0  0  0  0  0  0  0  0  0
    3.1257   10.1547   -9.2718 C   0  0  0  0  0  0  0  0  0  0  0  0
    2.2350   11.0433   -9.8541 C   0  0  0  0  0  0  0  0  0  0  0  0
    0.8975   10.7211   -9.9658 C   0  0  0  0  0  0  0  0  0  0  0  0
    0.4390    9.5021   -9.4935 C   0  0  0  0  0  0  0  0  0  0  0  0
   -0.7769    8.9098   -9.4566 O   0  0  0  0  0  0  0  0  0  0  0  0
   -3.5441    7.6521   -8.2653 H   0  0  0  0  0  0  0  0  0  0  0  0
   -2.9897    7.8018   -9.9501 H   0  0  0  0  0  0  0  0  0  0  0  0
   -3.5630    6.2318   -9.3379 H   0  0  0  0  0  0  0  0  0  0  0  0
   -0.3734    5.2104   -8.2480 H   0  0  0  0  0  0  0  0  0  0  0  0
   -2.0947    4.7774   -8.3827 H   0  0  0  0  0  0  0  0  0  0  0  0
   -0.9070    6.4800   -6.1467 H   0  0  0  0  0  0  0  0  0  0  0  0
   -1.2576    4.7400   -6.0142 H   0  0  0  0  0  0  0  0  0  0  0  0
   -5.2921    6.5212   -5.2522 H   0  0  0  0  0  0  0  0  0  0  0  0
   -5.8503    6.8154   -2.8730 H   0  0  0  0  0  0  0  0  0  0  0  0
   -1.7817    6.0867   -1.8207 H   0  0  0  0  0  0  0  0  0  0  0  0
   -1.2174    5.7808   -4.1970 H   0  0  0  0  0  0  0  0  0  0  0  0
   -5.0257    7.3440   -0.6536 H   0  0  0  0  0  0  0  0  0  0  0  0
   -3.3287    7.0356   -0.2141 H   0  0  0  0  0  0  0  0  0  0  0  0
   -2.5430    4.7534   -0.1662 H   0  0  0  0  0  0  0  0  0  0  0  0
   -5.7658    3.1578   -0.3966 H   0  0  0  0  0  0  0  0  0  0  0  0
   -6.1092    0.7262   -0.4065 H   0  0  0  0  0  0  0  0  0  0  0  0
   -4.1928   -0.8016   -0.1953 H   0  0  0  0  0  0  0  0  0  0  0  0
   -1.9158    0.0898    0.0255 H   0  0  0  0  0  0  0  0  0  0  0  0
    1.6755    3.1120    0.0986 H   0  0  0  0  0  0  0  0  0  0  0  0
    3.2732    1.2138    0.0392 H   0  0  0  0  0  0  0  0  0  0  0  0
    2.2730   -1.1609   -0.0423 H   0  0  0  0  0  0  0  0  0  0  0  0
    3.3841    8.2491   -8.3443 H   0  0  0  0  0  0  0  0  0  0  0  0
    4.1701   10.4175   -9.1902 H   0  0  0  0  0  0  0  0  0  0  0  0
    2.5901   11.9943  -10.2227 H   0  0  0  0  0  0  0  0  0  0  0  0
    0.2093   11.4185  -10.4203 H   0  0  0  0  0  0  0  0  0  0  0  0
   -6.1077    6.2891    1.5334 O   0  5  0  0  0  0  0  0  0  0  0  0
  1  2  1  0  0  0  0
  1 40  1  0  0  0  0
  1 41  1  0  0  0  0
  1 42  1  0  0  0  0
  2  3  1  0  0  0  0
  2 31  1  0  0  0  0
  3  4  1  0  0  0  0
  3 43  1  0  0  0  0
  3 44  1  0  0  0  0
  4  5  1  0  0  0  0
  4 45  1  0  0  0  0
  4 46  1  0  0  0  0
  5  6  1  0  0  0  0
  6 11  2  0  0  0  0
  6  7  1  0  0  0  0
  7  8  2  0  0  0  0
  7 47  1  0  0  0  0
  8  9  1  0  0  0  0
  8 48  1  0  0  0  0
  9 10  2  0  0  0  0
  9 12  1  0  0  0  0
 10 11  1  0  0  0  0
 10 49  1  0  0  0  0
 11 50  1  0  0  0  0
 12 13  1  0  0  0  0
 12 51  1  0  0  0  0
 12 52  1  0  0  0  0
 13 14  1  0  0  0  0
 13 15  1  0  0  0  0
 13 17  1  0  0  0  0
 15 16  2  0  0  0  0
 15 65  1  0  0  0  0
 17 18  1  0  0  0  0
 17 53  1  0  0  0  0
 18 23  2  0  0  0  0
 18 19  1  0  0  0  0
 19 20  2  0  0  0  0
 19 54  1  0  0  0  0
 20 21  1  0  0  0  0
 20 55  1  0  0  0  0
 21 22  2  0  0  0  0
 21 56  1  0  0  0  0
 22 23  1  0  0  0  0
 22 57  1  0  0  0  0
 23 24  1  0  0  0  0
 24 25  2  0  0  0  0
 24 26  1  0  0  0  0
 26 30  1  0  0  0  0
 26 27  2  0  0  0  0
 27 28  1  0  0  0  0
 27 58  1  0  0  0  0
 28 29  2  0  0  0  0
 28 59  1  0  0  0  0
 29 30  1  0  0  0  0
 29 60  1  0  0  0  0
 31 39  1  0  0  0  0
 31 32  2  0  0  0  0
 32 33  1  0  0  0  0
 33 38  2  0  0  0  0
 33 34  1  0  0  0  0
 34 35  2  0  0  0  0
 34 61  1  0  0  0  0
 35 36  1  0  0  0  0
 35 62  1  0  0  0  0
 36 37  2  0  0  0  0
 36 63  1  0  0  0  0
 37 38  1  0  0  0  0
 37 64  1  0  0  0  0
 38 39  1  0  0  0  0
M  CHG  1  65  -1
M  END
$$$$
ZINC03832289
  -OEChem-08230709403D

 71 75  0     1  0  0  0  0  0999 V2000
   -1.8940   -3.1368   -4.3491 C   0  0  0  0  0  0  0  0  0  0  0  0
   -1.3985   -2.3038   -3.1952 C   0  0  0  0  0  0  0  0  0  0  0  0
   -0.9938   -2.9204   -2.0243 C   0  0  0  0  0  0  0  0  0  0  0  0
   -0.5388   -2.1641   -0.9644 C   0  0  0  0  0  0  0  0  0  0  0  0
   -0.4870   -0.7730   -1.0749 C   0  0  0  0  0  0  0  0  0  0  0  0
   -0.9023   -0.1569   -2.2573 C   0  0  0  0  0  0  0  0  0  0  0  0
   -1.3498   -0.9257   -3.3115 C   0  0  0  0  0  0  0  0  0  0  0  0
   -0.0005    0.0441    0.0567 C   0  0  0  0  0  0  0  0  0  0  0  0
    0.4476   -0.4973    1.0491 O   0  0  0  0  0  0  0  0  0  0  0  0
   -0.0586    1.5141   -0.0177 C   0  0  0  0  0  0  0  0  0  0  0  0
    1.1043    2.2533   -0.2570 C   0  0  0  0  0  0  0  0  0  0  0  0
    1.0428    3.6271   -0.3257 C   0  0  0  0  0  0  0  0  0  0  0  0
   -0.1671    4.2839   -0.1594 C   0  0  0  0  0  0  0  0  0  0  0  0
   -1.3234    3.5698    0.0778 C   0  0  0  0  0  0  0  0  0  0  0  0
   -1.2834    2.1825    0.1455 C   0  0  0  0  0  0  0  0  0  0  0  0
   -2.4464    1.4614    0.3783 N   0  0  0  0  0  0  0  0  0  0  0  0
   -3.7345    2.1546    0.4583 C   0  0  2  0  0  0  0  0  0  0  0  0
   -3.5936    3.1308    0.9225 H   0  0  0  0  0  0  0  0  0  0  0  0
   -4.7082    1.3261    1.2988 C   0  0  0  0  0  0  0  0  0  0  0  0
   -4.2076    1.2500    2.7182 C   0  0  0  0  0  0  0  0  0  0  0  0
   -3.3700    0.2183    3.1002 C   0  0  0  0  0  0  0  0  0  0  0  0
   -2.9052    0.1494    4.3993 C   0  0  0  0  0  0  0  0  0  0  0  0
   -3.2883    1.1104    5.3236 C   0  0  0  0  0  0  0  0  0  0  0  0
   -4.1333    2.1414    4.9393 C   0  0  0  0  0  0  0  0  0  0  0  0
   -4.5912    2.2087    3.6377 C   0  0  0  0  0  0  0  0  0  0  0  0
   -2.8368    1.0417    6.6036 O   0  0  0  0  0  0  0  0  0  0  0  0
   -1.9700   -0.0470    6.9283 C   0  0  0  0  0  0  0  0  0  0  0  0
   -1.5687    0.0426    8.4020 C   0  0  0  0  0  0  0  0  0  0  0  0
   -2.7540   -0.1416    9.2430 N   0  0  0  0  0  0  0  0  0  0  0  0
   -3.5549    1.0176    9.6441 C   0  0  0  0  0  0  0  0  0  0  0  0
   -3.1152   -1.4039    9.6563 C   0  0  0  0  0  0  0  0  0  0  0  0
   -2.4757   -2.5042    9.3518 N   0  0  0  0  0  0  0  0  0  0  0  0
   -3.1139   -3.5557    9.9355 C   0  0  0  0  0  0  0  0  0  0  0  0
   -2.8837   -4.9319    9.9556 C   0  0  0  0  0  0  0  0  0  0  0  0
   -3.7389   -5.7576   10.6520 C   0  0  0  0  0  0  0  0  0  0  0  0
   -4.8253   -5.2290   11.3320 C   0  0  0  0  0  0  0  0  0  0  0  0
   -5.0643   -3.8696   11.3202 C   0  0  0  0  0  0  0  0  0  0  0  0
   -4.2143   -3.0250   10.6249 C   0  0  0  0  0  0  0  0  0  0  0  0
   -4.1800   -1.6871   10.4270 O   0  0  0  0  0  0  0  0  0  0  0  0
   -4.2954    2.3342   -0.9288 C   0  0  0  0  0  0  0  0  0  0  0  0
   -3.6820    1.9251   -1.8861 O   0  0  0  0  0  0  0  0  0  0  0  0
   -2.9719   -3.2733   -4.2622 H   0  0  0  0  0  0  0  0  0  0  0  0
   -1.6663   -2.6303   -5.2871 H   0  0  0  0  0  0  0  0  0  0  0  0
   -1.4021   -4.1094   -4.3328 H   0  0  0  0  0  0  0  0  0  0  0  0
   -1.0348   -3.9964   -1.9401 H   0  0  0  0  0  0  0  0  0  0  0  0
   -0.2230   -2.6466   -0.0513 H   0  0  0  0  0  0  0  0  0  0  0  0
   -0.8694    0.9188   -2.3477 H   0  0  0  0  0  0  0  0  0  0  0  0
   -1.6667   -0.4509   -4.2283 H   0  0  0  0  0  0  0  0  0  0  0  0
    2.0494    1.7472   -0.3873 H   0  0  0  0  0  0  0  0  0  0  0  0
    1.9418    4.1963   -0.5106 H   0  0  0  0  0  0  0  0  0  0  0  0
   -0.2044    5.3618   -0.2156 H   0  0  0  0  0  0  0  0  0  0  0  0
   -2.2613    4.0894    0.2069 H   0  0  0  0  0  0  0  0  0  0  0  0
   -2.4062    0.4985    0.4880 H   0  0  0  0  0  0  0  0  0  0  0  0
   -5.6914    1.7966    1.2850 H   0  0  0  0  0  0  0  0  0  0  0  0
   -4.7809    0.3205    0.8847 H   0  0  0  0  0  0  0  0  0  0  0  0
   -3.0757   -0.5320    2.3813 H   0  0  0  0  0  0  0  0  0  0  0  0
   -2.2478   -0.6543    4.6961 H   0  0  0  0  0  0  0  0  0  0  0  0
   -4.4326    2.8908    5.6570 H   0  0  0  0  0  0  0  0  0  0  0  0
   -5.2491    3.0110    3.3380 H   0  0  0  0  0  0  0  0  0  0  0  0
   -2.4876   -0.9894    6.7493 H   0  0  0  0  0  0  0  0  0  0  0  0
   -1.0771    0.0012    6.3050 H   0  0  0  0  0  0  0  0  0  0  0  0
   -0.8387   -0.7347    8.6277 H   0  0  0  0  0  0  0  0  0  0  0  0
   -1.1308    1.0209    8.6005 H   0  0  0  0  0  0  0  0  0  0  0  0
   -4.3334    1.1956    8.9023 H   0  0  0  0  0  0  0  0  0  0  0  0
   -4.0142    0.8241   10.6135 H   0  0  0  0  0  0  0  0  0  0  0  0
   -2.9130    1.8958    9.7150 H   0  0  0  0  0  0  0  0  0  0  0  0
   -2.0385   -5.3480    9.4276 H   0  0  0  0  0  0  0  0  0  0  0  0
   -3.5617   -6.8228   10.6686 H   0  0  0  0  0  0  0  0  0  0  0  0
   -5.4895   -5.8856   11.8745 H   0  0  0  0  0  0  0  0  0  0  0  0
   -5.9128   -3.4651   11.8520 H   0  0  0  0  0  0  0  0  0  0  0  0
   -5.4763    2.9487   -1.1010 O   0  5  0  0  0  0  0  0  0  0  0  0
  1  2  1  0  0  0  0
  1 42  1  0  0  0  0
  1 43  1  0  0  0  0
  1 44  1  0  0  0  0
  2  7  2  0  0  0  0
  2  3  1  0  0  0  0
  3  4  2  0  0  0  0
  3 45  1  0  0  0  0
  4  5  1  0  0  0  0
  4 46  1  0  0  0  0
  5  6  2  0  0  0  0
  5  8  1  0  0  0  0
  6  7  1  0  0  0  0
  6 47  1  0  0  0  0
  7 48  1  0  0  0  0
  8  9  2  0  0  0  0
  8 10  1  0  0  0  0
 10 15  2  0  0  0  0
 10 11  1  0  0  0  0
 11 12  2  0  0  0  0
 11 49  1  0  0  0  0
 12 13  1  0  0  0  0
 12 50  1  0  0  0  0
 13 14  2  0  0  0  0
 13 51  1  0  0  0  0
 14 15  1  0  0  0  0
 14 52  1  0  0  0  0
 15 16  1  0  0  0  0
 16 17  1  0  0  0  0
 16 53  1  0  0  0  0
 17 18  1  0  0  0  0
 17 19  1  0  0  0  0
 17 40  1  0  0  0  0
 19 20  1  0  0  0  0
 19 54  1  0  0  0  0
 19 55  1  0  0  0  0
 20 25  2  0  0  0  0
 20 21  1  0  0  0  0
 21 22  2  0  0  0  0
 21 56  1  0  0  0  0
 22 23  1  0  0  0  0
 22 57  1  0  0  0  0
 23 24  2  0  0  0  0
 23 26  1  0  0  0  0
 24 25  1  0  0  0  0
 24 58  1  0  0  0  0
 25 59  1  0  0  0  0
 26 27  1  0  0  0  0
 27 28  1  0  0  0  0
 27 60  1  0  0  0  0
 27 61  1  0  0  0  0
 28 29  1  0  0  0  0
 28 62  1  0  0  0  0
 28 63  1  0  0  0  0
 29 30  1  0  0  0  0
 29 31  1  0  0  0  0
 30 64  1  0  0  0  0
 30 65  1  0  0  0  0
 30 66  1  0  0  0  0
 31 39  1  0  0  0  0
 31 32  2  0  0  0  0
 32 33  1  0  0  0  0
 33 38  2  0  0  0  0
 33 34  1  0  0  0  0
 34 35  2  0  0  0  0
 34 67  1  0  0  0  0
 35 36  1  0  0  0  0
 35 68  1  0  0  0  0
 36 37  2  0  0  0  0
 36 69  1  0  0  0  0
 37 38  1  0  0  0  0
 37 70  1  0  0  0  0
 38 39  1  0  0  0  0
 40 41  2  0  0  0  0
 40 71  1  0  0  0  0
M  CHG  1  71  -1
M  END
$$$$
ZINC03832290
  -OEChem-08230709403D

 78 83  0     1  0  0  0  0  0999 V2000
    4.1142   -1.1791   -1.4677 C   0  0  0  0  0  0  0  0  0  0  0  0
    4.8030    0.1109   -1.3801 N   0  0  0  0  0  0  0  0  0  0  0  0
    4.7971    0.8604   -0.1214 C   0  0  0  0  0  0  0  0  0  0  0  0
    3.5858    1.7946   -0.0897 C   0  0  0  0  0  0  0  0  0  0  0  0
    2.3860    1.0184   -0.0732 O   0  0  0  0  0  0  0  0  0  0  0  0
    1.2107    1.7000   -0.0444 C   0  0  0  0  0  0  0  0  0  0  0  0
    0.0074    1.0097   -0.0271 C   0  0  0  0  0  0  0  0  0  0  0  0
   -1.1861    1.7049   -0.0041 C   0  0  0  0  0  0  0  0  0  0  0  0
   -1.1820    3.0875    0.0128 C   0  0  0  0  0  0  0  0  0  0  0  0
    0.0159    3.7778   -0.0040 C   0  0  0  0  0  0  0  0  0  0  0  0
    1.2120    3.0873   -0.0328 C   0  0  0  0  0  0  0  0  0  0  0  0
   -2.4854    3.8433    0.0437 C   0  0  0  0  0  0  0  0  0  0  0  0
   -2.9537    4.1112   -1.3880 C   0  0  2  0  0  0  0  0  0  0  0  0
   -2.1657    4.6260   -1.9377 H   0  0  0  0  0  0  0  0  0  0  0  0
   -4.1906    4.9716   -1.3593 C   0  0  0  0  0  0  0  0  0  0  0  0
   -5.2212    4.5642   -1.8408 O   0  0  0  0  0  0  0  0  0  0  0  0
   -3.2587    2.8393   -2.0481 N   0  0  0  0  0  0  0  0  0  0  0  0
   -3.1965    2.7429   -3.4303 C   0  0  0  0  0  0  0  0  0  0  0  0
   -2.9591    3.8753   -4.1999 C   0  0  0  0  0  0  0  0  0  0  0  0
   -2.8929    3.7761   -5.5741 C   0  0  0  0  0  0  0  0  0  0  0  0
   -3.0724    2.5518   -6.2008 C   0  0  0  0  0  0  0  0  0  0  0  0
   -3.3139    1.4184   -5.4584 C   0  0  0  0  0  0  0  0  0  0  0  0
   -3.3792    1.4994   -4.0617 C   0  0  0  0  0  0  0  0  0  0  0  0
   -3.6356    0.2962   -3.2633 C   0  0  0  0  0  0  0  0  0  0  0  0
   -3.7943    0.3866   -2.0639 O   0  0  0  0  0  0  0  0  0  0  0  0
   -3.7020   -1.0523   -3.9326 C   0  0  1  0  0  0  0  0  0  0  0  0
   -4.0361   -0.9436   -4.8688 H   0  0  0  0  0  0  0  0  0  0  0  0
   -2.3275   -1.6504   -3.9714 C   0  0  0  0  0  0  0  0  0  0  0  0
   -1.9305   -2.5772   -3.1888 C   0  0  0  0  0  0  0  0  0  0  0  0
   -2.7929   -3.2501   -2.1669 C   0  0  0  0  0  0  0  0  0  0  0  0
   -4.0293   -2.4018   -1.8453 C   0  0  1  0  0  0  0  0  0  0  0  0
   -3.7623   -1.5461   -1.2252 H   0  0  0  0  0  0  0  0  0  0  0  0
   -4.6644   -1.9436   -3.1642 C   0  0  2  0  0  0  0  0  0  0  0  0
   -5.5667   -1.3747   -2.9399 H   0  0  0  0  0  0  0  0  0  0  0  0
   -5.0619   -3.1524   -3.9655 C   0  0  0  0  0  0  0  0  0  0  0  0
   -5.5852   -4.1991   -3.3241 C   0  0  0  0  0  0  0  0  0  0  0  0
   -5.7692   -4.1303   -1.8637 C   0  0  0  0  0  0  0  0  0  0  0  0
   -5.0377   -3.2875   -1.1391 C   0  0  0  0  0  0  0  0  0  0  0  0
    5.4556    0.6188   -2.4805 C   0  0  0  0  0  0  0  0  0  0  0  0
    6.0950    1.7600   -2.5125 N   0  0  0  0  0  0  0  0  0  0  0  0
    6.6169    1.9331   -3.7580 C   0  0  0  0  0  0  0  0  0  0  0  0
    7.3773    2.9408   -4.3526 C   0  0  0  0  0  0  0  0  0  0  0  0
    7.7551    2.8233   -5.6723 C   0  0  0  0  0  0  0  0  0  0  0  0
    7.3841    1.7106   -6.4115 C   0  0  0  0  0  0  0  0  0  0  0  0
    6.6320    0.7067   -5.8355 C   0  0  0  0  0  0  0  0  0  0  0  0
    6.2437    0.8090   -4.5096 C   0  0  0  0  0  0  0  0  0  0  0  0
    5.5244    0.0173   -3.6811 O   0  0  0  0  0  0  0  0  0  0  0  0
    3.0819   -1.0195   -1.7791 H   0  0  0  0  0  0  0  0  0  0  0  0
    4.6199   -1.8122   -2.1969 H   0  0  0  0  0  0  0  0  0  0  0  0
    4.1285   -1.6656   -0.4924 H   0  0  0  0  0  0  0  0  0  0  0  0
    5.7116    1.4485   -0.0445 H   0  0  0  0  0  0  0  0  0  0  0  0
    4.7412    0.1644    0.7156 H   0  0  0  0  0  0  0  0  0  0  0  0
    3.5946    2.4311   -0.9745 H   0  0  0  0  0  0  0  0  0  0  0  0
    3.6292    2.4155    0.8050 H   0  0  0  0  0  0  0  0  0  0  0  0
    0.0037   -0.0703   -0.0360 H   0  0  0  0  0  0  0  0  0  0  0  0
   -2.1232    1.1680    0.0045 H   0  0  0  0  0  0  0  0  0  0  0  0
    0.0164    4.8578    0.0050 H   0  0  0  0  0  0  0  0  0  0  0  0
    2.1474    3.6270   -0.0466 H   0  0  0  0  0  0  0  0  0  0  0  0
   -3.2364    3.2513    0.5668 H   0  0  0  0  0  0  0  0  0  0  0  0
   -2.3435    4.7911    0.5629 H   0  0  0  0  0  0  0  0  0  0  0  0
   -3.5042    2.0647   -1.5184 H   0  0  0  0  0  0  0  0  0  0  0  0
   -2.8224    4.8338   -3.7213 H   0  0  0  0  0  0  0  0  0  0  0  0
   -2.7040    4.6589   -6.1668 H   0  0  0  0  0  0  0  0  0  0  0  0
   -3.0228    2.4876   -7.2777 H   0  0  0  0  0  0  0  0  0  0  0  0
   -3.4532    0.4680   -5.9521 H   0  0  0  0  0  0  0  0  0  0  0  0
   -1.6218   -1.2588   -4.6891 H   0  0  0  0  0  0  0  0  0  0  0  0
   -0.9091   -2.9140   -3.2873 H   0  0  0  0  0  0  0  0  0  0  0  0
   -2.2155   -3.4011   -1.2548 H   0  0  0  0  0  0  0  0  0  0  0  0
   -3.1134   -4.2182   -2.5517 H   0  0  0  0  0  0  0  0  0  0  0  0
   -4.9262   -3.1734   -5.0367 H   0  0  0  0  0  0  0  0  0  0  0  0
   -5.8713   -5.0865   -3.8692 H   0  0  0  0  0  0  0  0  0  0  0  0
   -6.4979   -4.7646   -1.3811 H   0  0  0  0  0  0  0  0  0  0  0  0
   -5.1602   -3.2347   -0.0674 H   0  0  0  0  0  0  0  0  0  0  0  0
    7.6689    3.8092   -3.7805 H   0  0  0  0  0  0  0  0  0  0  0  0
    8.3439    3.6023   -6.1336 H   0  0  0  0  0  0  0  0  0  0  0  0
    7.6854    1.6289   -7.4454 H   0  0  0  0  0  0  0  0  0  0  0  0
    6.3464   -0.1570   -6.4176 H   0  0  0  0  0  0  0  0  0  0  0  0
   -4.1474    6.1905   -0.7989 O   0  5  0  0  0  0  0  0  0  0  0  0
  1  2  1  0  0  0  0
  1 48  1  0  0  0  0
  1 49  1  0  0  0  0
  1 50  1  0  0  0  0
  2  3  1  0  0  0  0
  2 39  1  0  0  0  0
  3  4  1  0  0  0  0
  3 51  1  0  0  0  0
  3 52  1  0  0  0  0
  4  5  1  0  0  0  0
  4 53  1  0  0  0  0
  4 54  1  0  0  0  0
  5  6  1  0  0  0  0
  6 11  2  0  0  0  0
  6  7  1  0  0  0  0
  7  8  2  0  0  0  0
  7 55  1  0  0  0  0
  8  9  1  0  0  0  0
  8 56  1  0  0  0  0
  9 10  2  0  0  0  0
  9 12  1  0  0  0  0
 10 11  1  0  0  0  0
 10 57  1  0  0  0  0
 11 58  1  0  0  0  0
 12 13  1  0  0  0  0
 12 59  1  0  0  0  0
 12 60  1  0  0  0  0
 13 14  1  0  0  0  0
 13 15  1  0  0  0  0
 13 17  1  0  0  0  0
 15 16  2  0  0  0  0
 15 78  1  0  0  0  0
 17 18  1  0  0  0  0
 17 61  1  0  0  0  0
 18 23  2  0  0  0  0
 18 19  1  0  0  0  0
 19 20  2  0  0  0  0
 19 62  1  0  0  0  0
 20 21  1  0  0  0  0
 20 63  1  0  0  0  0
 21 22  2  0  0  0  0
 21 64  1  0  0  0  0
 22 23  1  0  0  0  0
 22 65  1  0  0  0  0
 23 24  1  0  0  0  0
 24 25  2  0  0  0  0
 24 26  1  0  0  0  0
 26 27  1  0  0  0  0
 26 33  1  0  0  0  0
 26 28  1  0  0  0  0
 28 29  2  0  0  0  0
 28 66  1  0  0  0  0
 29 30  1  0  0  0  0
 29 67  1  0  0  0  0
 30 31  1  0  0  0  0
 30 68  1  0  0  0  0
 30 69  1  0  0  0  0
 31 32  1  0  0  0  0
 31 38  1  0  0  0  0
 31 33  1  0  0  0  0
 33 34  1  0  0  0  0
 33 35  1  0  0  0  0
 35 36  2  0  0  0  0
 35 70  1  0  0  0  0
 36 37  1  0  0  0  0
 36 71  1  0  0  0  0
 37 38  2  0  0  0  0
 37 72  1  0  0  0  0
 38 73  1  0  0  0  0
 39 47  1  0  0  0  0
 39 40  2  0  0  0  0
 40 41  1  0  0  0  0
 41 46  2  0  0  0  0
 41 42  1  0  0  0  0
 42 43  2  0  0  0  0
 42 74  1  0  0  0  0
 43 44  1  0  0  0  0
 43 75  1  0  0  0  0
 44 45  2  0  0  0  0
 44 76  1  0  0  0  0
 45 46  1  0  0  0  0
 45 77  1  0  0  0  0
 46 47  1  0  0  0  0
M  CHG  1  78  -1
M  END
$$$$
ZINC03832291
  -OEChem-08230709403D

 72 76  0     1  0  0  0  0  0999 V2000
    0.0194    4.7918    8.3300 C   0  0  0  0  0  0  0  0  0  0  0  0
   -1.4078    5.1458    8.6599 C   0  0  0  0  0  0  0  0  0  0  0  0
   -1.9648    6.3681    8.5828 C   0  0  0  0  0  0  0  0  0  0  0  0
   -3.2459    6.2609    8.9662 N   0  0  0  0  0  0  0  0  0  0  0  0
   -3.4905    5.0071    9.2664 C   0  0  0  0  0  0  0  0  0  0  0  0
   -2.3633    4.2968    9.0874 O   0  0  0  0  0  0  0  0  0  0  0  0
   -4.7864    4.4673    9.7296 C   0  0  0  0  0  0  0  0  0  0  0  0
   -5.8851    5.3149    9.8802 C   0  0  0  0  0  0  0  0  0  0  0  0
   -7.0932    4.8037   10.3073 C   0  0  0  0  0  0  0  0  0  0  0  0
   -7.2141    3.4563   10.5971 C   0  0  0  0  0  0  0  0  0  0  0  0
   -6.1274    2.6117   10.4554 C   0  0  0  0  0  0  0  0  0  0  0  0
   -4.9151    3.1091   10.0236 C   0  0  0  0  0  0  0  0  0  0  0  0
   -1.2712    7.6337    8.1490 C   0  0  0  0  0  0  0  0  0  0  0  0
   -1.4173    7.8023    6.6354 C   0  0  0  0  0  0  0  0  0  0  0  0
   -0.7595    9.0024    6.2241 O   0  0  0  0  0  0  0  0  0  0  0  0
   -0.7952    9.3025    4.8991 C   0  0  0  0  0  0  0  0  0  0  0  0
   -0.1771   10.4526    4.4303 C   0  0  0  0  0  0  0  0  0  0  0  0
   -0.2144   10.7553    3.0829 C   0  0  0  0  0  0  0  0  0  0  0  0
   -0.8671    9.9130    2.2018 C   0  0  0  0  0  0  0  0  0  0  0  0
   -1.4887    8.7690    2.6673 C   0  0  0  0  0  0  0  0  0  0  0  0
   -1.4494    8.4590    4.0130 C   0  0  0  0  0  0  0  0  0  0  0  0
   -0.9063   10.2455    0.7325 C   0  0  0  0  0  0  0  0  0  0  0  0
    0.3033    9.6195    0.0355 C   0  0  2  0  0  0  0  0  0  0  0  0
    1.2176    9.9464    0.5309 H   0  0  0  0  0  0  0  0  0  0  0  0
    0.3314   10.0528   -1.4076 C   0  0  0  0  0  0  0  0  0  0  0  0
    0.2755    9.2267   -2.2876 O   0  0  0  0  0  0  0  0  0  0  0  0
    0.2055    8.1594    0.1052 N   0  0  0  0  0  0  0  0  0  0  0  0
    1.3535    7.3826    0.0327 C   0  0  0  0  0  0  0  0  0  0  0  0
    2.5841    7.9765   -0.2196 C   0  0  0  0  0  0  0  0  0  0  0  0
    3.7227    7.2014   -0.2977 C   0  0  0  0  0  0  0  0  0  0  0  0
    3.6515    5.8281   -0.1192 C   0  0  0  0  0  0  0  0  0  0  0  0
    2.4426    5.2213    0.1379 C   0  0  0  0  0  0  0  0  0  0  0  0
    1.2786    5.9923    0.2198 C   0  0  0  0  0  0  0  0  0  0  0  0
   -0.0183    5.3500    0.4946 C   0  0  0  0  0  0  0  0  0  0  0  0
   -0.2849    4.9755    1.6204 O   0  0  0  0  0  0  0  0  0  0  0  0
   -0.9956    5.1606   -0.5982 C   0  0  0  0  0  0  0  0  0  0  0  0
   -0.6492    5.4846   -1.9121 C   0  0  0  0  0  0  0  0  0  0  0  0
   -1.5633    5.3074   -2.9301 C   0  0  0  0  0  0  0  0  0  0  0  0
   -2.8236    4.8093   -2.6553 C   0  0  0  0  0  0  0  0  0  0  0  0
   -3.1802    4.4887   -1.3505 C   0  0  0  0  0  0  0  0  0  0  0  0
   -2.2672    4.6581   -0.3208 C   0  0  0  0  0  0  0  0  0  0  0  0
   -4.4567    3.9908   -1.0775 N   0  0  0  0  0  0  0  0  0  0  0  0
    0.6345    4.8913    9.2243 H   0  0  0  0  0  0  0  0  0  0  0  0
    0.0650    3.7639    7.9703 H   0  0  0  0  0  0  0  0  0  0  0  0
    0.3911    5.4641    7.5567 H   0  0  0  0  0  0  0  0  0  0  0  0
   -5.7908    6.3677    9.6586 H   0  0  0  0  0  0  0  0  0  0  0  0
   -7.9453    5.4576   10.4200 H   0  0  0  0  0  0  0  0  0  0  0  0
   -8.1610    3.0619   10.9351 H   0  0  0  0  0  0  0  0  0  0  0  0
   -6.2284    1.5608   10.6829 H   0  0  0  0  0  0  0  0  0  0  0  0
   -4.0677    2.4487    9.9131 H   0  0  0  0  0  0  0  0  0  0  0  0
   -0.2139    7.5756    8.4078 H   0  0  0  0  0  0  0  0  0  0  0  0
   -1.7227    8.4871    8.6549 H   0  0  0  0  0  0  0  0  0  0  0  0
   -2.4745    7.8604    6.3766 H   0  0  0  0  0  0  0  0  0  0  0  0
   -0.9658    6.9488    6.1295 H   0  0  0  0  0  0  0  0  0  0  0  0
    0.3331   11.1107    5.1181 H   0  0  0  0  0  0  0  0  0  0  0  0
    0.2669   11.6503    2.7174 H   0  0  0  0  0  0  0  0  0  0  0  0
   -2.0020    8.1152    1.9778 H   0  0  0  0  0  0  0  0  0  0  0  0
   -1.9314    7.5631    4.3755 H   0  0  0  0  0  0  0  0  0  0  0  0
   -0.8798   11.3276    0.6041 H   0  0  0  0  0  0  0  0  0  0  0  0
   -1.8228    9.8500    0.2948 H   0  0  0  0  0  0  0  0  0  0  0  0
   -0.6616    7.7355    0.2019 H   0  0  0  0  0  0  0  0  0  0  0  0
    2.6487    9.0455   -0.3592 H   0  0  0  0  0  0  0  0  0  0  0  0
    4.6760    7.6674   -0.4989 H   0  0  0  0  0  0  0  0  0  0  0  0
    4.5493    5.2312   -0.1825 H   0  0  0  0  0  0  0  0  0  0  0  0
    2.3933    4.1514    0.2764 H   0  0  0  0  0  0  0  0  0  0  0  0
    0.3340    5.8742   -2.1310 H   0  0  0  0  0  0  0  0  0  0  0  0
   -1.2937    5.5588   -3.9452 H   0  0  0  0  0  0  0  0  0  0  0  0
   -3.5349    4.6732   -3.4564 H   0  0  0  0  0  0  0  0  0  0  0  0
   -2.5408    4.4054    0.6929 H   0  0  0  0  0  0  0  0  0  0  0  0
   -5.0941    3.8689   -1.7984 H   0  0  0  0  0  0  0  0  0  0  0  0
   -4.7055    3.7671   -0.1671 H   0  0  0  0  0  0  0  0  0  0  0  0
    0.4187   11.3564   -1.7153 O   0  5  0  0  0  0  0  0  0  0  0  0
  1  2  1  0  0  0  0
  1 43  1  0  0  0  0
  1 44  1  0  0  0  0
  1 45  1  0  0  0  0
  2  6  1  0  0  0  0
  2  3  2  0  0  0  0
  3  4  1  0  0  0  0
  3 13  1  0  0  0  0
  4  5  2  0  0  0  0
  5  6  1  0  0  0  0
  5  7  1  0  0  0  0
  7 12  2  0  0  0  0
  7  8  1  0  0  0  0
  8  9  2  0  0  0  0
  8 46  1  0  0  0  0
  9 10  1  0  0  0  0
  9 47  1  0  0  0  0
 10 11  2  0  0  0  0
 10 48  1  0  0  0  0
 11 12  1  0  0  0  0
 11 49  1  0  0  0  0
 12 50  1  0  0  0  0
 13 14  1  0  0  0  0
 13 51  1  0  0  0  0
 13 52  1  0  0  0  0
 14 15  1  0  0  0  0
 14 53  1  0  0  0  0
 14 54  1  0  0  0  0
 15 16  1  0  0  0  0
 16 21  2  0  0  0  0
 16 17  1  0  0  0  0
 17 18  2  0  0  0  0
 17 55  1  0  0  0  0
 18 19  1  0  0  0  0
 18 56  1  0  0  0  0
 19 20  2  0  0  0  0
 19 22  1  0  0  0  0
 20 21  1  0  0  0  0
 20 57  1  0  0  0  0
 21 58  1  0  0  0  0
 22 23  1  0  0  0  0
 22 59  1  0  0  0  0
 22 60  1  0  0  0  0
 23 24  1  0  0  0  0
 23 25  1  0  0  0  0
 23 27  1  0  0  0  0
 25 26  2  0  0  0  0
 25 72  1  0  0  0  0
 27 28  1  0  0  0  0
 27 61  1  0  0  0  0
 28 33  2  0  0  0  0
 28 29  1  0  0  0  0
 29 30  2  0  0  0  0
 29 62  1  0  0  0  0
 30 31  1  0  0  0  0
 30 63  1  0  0  0  0
 31 32  2  0  0  0  0
 31 64  1  0  0  0  0
 32 33  1  0  0  0  0
 32 65  1  0  0  0  0
 33 34  1  0  0  0  0
 34 35  2  0  0  0  0
 34 36  1  0  0  0  0
 36 41  2  0  0  0  0
 36 37  1  0  0  0  0
 37 38  2  0  0  0  0
 37 66  1  0  0  0  0
 38 39  1  0  0  0  0
 38 67  1  0  0  0  0
 39 40  2  0  0  0  0
 39 68  1  0  0  0  0
 40 41  1  0  0  0  0
 40 42  1  0  0  0  0
 41 69  1  0  0  0  0
 42 70  1  0  0  0  0
 42 71  1  0  0  0  0
M  CHG  1  72  -1
M  END
$$$$
ZINC03832292
  -OEChem-08230709403D

 67 71  0     1  0  0  0  0  0999 V2000
   -3.5982   -1.7454   -9.0343 C   0  0  0  0  0  0  0  0  0  0  0  0
   -4.1848   -0.4868   -8.5674 N   0  0  0  0  0  0  0  0  0  0  0  0
   -3.3494    0.4991   -7.8771 C   0  0  0  0  0  0  0  0  0  0  0  0
   -3.3756    0.2254   -6.3720 C   0  0  0  0  0  0  0  0  0  0  0  0
   -2.7650   -1.0392   -6.1072 O   0  0  0  0  0  0  0  0  0  0  0  0
   -2.7063   -1.4361   -4.8088 C   0  0  0  0  0  0  0  0  0  0  0  0
   -2.1269   -2.6529   -4.4797 C   0  0  0  0  0  0  0  0  0  0  0  0
   -2.0688   -3.0543   -3.1591 C   0  0  0  0  0  0  0  0  0  0  0  0
   -2.5871   -2.2442   -2.1657 C   0  0  0  0  0  0  0  0  0  0  0  0
   -3.1701   -1.0336   -2.4916 C   0  0  0  0  0  0  0  0  0  0  0  0
   -3.2260   -0.6253   -3.8102 C   0  0  0  0  0  0  0  0  0  0  0  0
   -2.5220   -2.6843   -0.7259 C   0  0  0  0  0  0  0  0  0  0  0  0
   -1.2188   -2.1854   -0.0985 C   0  0  2  0  0  0  0  0  0  0  0  0
   -0.3737   -2.5271   -0.6961 H   0  0  0  0  0  0  0  0  0  0  0  0
   -1.0956   -2.7277    1.3021 C   0  0  0  0  0  0  0  0  0  0  0  0
   -1.0219   -1.9689    2.2395 O   0  0  0  0  0  0  0  0  0  0  0  0
   -1.2265   -0.7210   -0.0562 N   0  0  0  0  0  0  0  0  0  0  0  0
   -0.0183   -0.0153   -0.0329 C   0  0  0  0  0  0  0  0  0  0  0  0
    1.1878   -0.7004   -0.0504 C   0  0  0  0  0  0  0  0  0  0  0  0
    2.3798   -0.0011   -0.0278 C   0  0  0  0  0  0  0  0  0  0  0  0
    2.3739    1.3809    0.0121 C   0  0  0  0  0  0  0  0  0  0  0  0
    1.1758    2.0708    0.0297 C   0  0  0  0  0  0  0  0  0  0  0  0
   -0.0235    1.3775    0.0073 C   0  0  0  0  0  0  0  0  0  0  0  0
   -1.2026    2.0548    0.0189 O   0  0  0  0  0  0  0  0  0  0  0  0
   -1.8525    2.1839    1.2052 C   0  0  0  0  0  0  0  0  0  0  0  0
   -1.2593    1.7318    2.3754 C   0  0  0  0  0  0  0  0  0  0  0  0
   -1.9203    1.8681    3.5807 C   0  0  0  0  0  0  0  0  0  0  0  0
   -3.1760    2.4458    3.6205 C   0  0  0  0  0  0  0  0  0  0  0  0
   -3.7715    2.8924    2.4552 C   0  0  0  0  0  0  0  0  0  0  0  0
   -3.1128    2.7628    1.2479 C   0  0  0  0  0  0  0  0  0  0  0  0
   -5.5209   -0.2305   -8.7772 C   0  0  0  0  0  0  0  0  0  0  0  0
   -6.1447    0.8553   -8.3975 N   0  0  0  0  0  0  0  0  0  0  0  0
   -7.4494    0.7638   -8.7756 C   0  0  0  0  0  0  0  0  0  0  0  0
   -8.5532    1.6069   -8.6405 C   0  0  0  0  0  0  0  0  0  0  0  0
   -9.7769    1.2154   -9.1377 C   0  0  0  0  0  0  0  0  0  0  0  0
   -9.9173   -0.0101   -9.7706 C   0  0  0  0  0  0  0  0  0  0  0  0
   -8.8336   -0.8534   -9.9108 C   0  0  0  0  0  0  0  0  0  0  0  0
   -7.5959   -0.4753   -9.4166 C   0  0  0  0  0  0  0  0  0  0  0  0
   -6.3767   -1.0618   -9.3971 O   0  0  0  0  0  0  0  0  0  0  0  0
   -3.6786   -2.4971   -8.2490 H   0  0  0  0  0  0  0  0  0  0  0  0
   -4.1316   -2.0879   -9.9210 H   0  0  0  0  0  0  0  0  0  0  0  0
   -2.5481   -1.5877   -9.2802 H   0  0  0  0  0  0  0  0  0  0  0  0
   -3.7338    1.5005   -8.0711 H   0  0  0  0  0  0  0  0  0  0  0  0
   -2.3249    0.4262   -8.2419 H   0  0  0  0  0  0  0  0  0  0  0  0
   -4.4082    0.2104   -6.0234 H   0  0  0  0  0  0  0  0  0  0  0  0
   -2.8273    1.0099   -5.8505 H   0  0  0  0  0  0  0  0  0  0  0  0
   -1.7213   -3.2857   -5.2552 H   0  0  0  0  0  0  0  0  0  0  0  0
   -1.6179   -4.0015   -2.9024 H   0  0  0  0  0  0  0  0  0  0  0  0
   -3.5786   -0.4048   -1.7143 H   0  0  0  0  0  0  0  0  0  0  0  0
   -3.6779    0.3222   -4.0639 H   0  0  0  0  0  0  0  0  0  0  0  0
   -2.5555   -3.7727   -0.6768 H   0  0  0  0  0  0  0  0  0  0  0  0
   -3.3698   -2.2698   -0.1805 H   0  0  0  0  0  0  0  0  0  0  0  0
   -2.0691   -0.2406   -0.0443 H   0  0  0  0  0  0  0  0  0  0  0  0
    1.1954   -1.7800   -0.0812 H   0  0  0  0  0  0  0  0  0  0  0  0
    3.3182   -0.5356   -0.0418 H   0  0  0  0  0  0  0  0  0  0  0  0
    3.3078    1.9232    0.0293 H   0  0  0  0  0  0  0  0  0  0  0  0
    1.1748    3.1504    0.0606 H   0  0  0  0  0  0  0  0  0  0  0  0
   -0.2803    1.2768    2.3443 H   0  0  0  0  0  0  0  0  0  0  0  0
   -1.4577    1.5195    4.4922 H   0  0  0  0  0  0  0  0  0  0  0  0
   -3.6926    2.5481    4.5633 H   0  0  0  0  0  0  0  0  0  0  0  0
   -4.7523    3.3432    2.4890 H   0  0  0  0  0  0  0  0  0  0  0  0
   -3.5786    3.1115    0.3380 H   0  0  0  0  0  0  0  0  0  0  0  0
   -8.4484    2.5626   -8.1485 H   0  0  0  0  0  0  0  0  0  0  0  0
  -10.6319    1.8672   -9.0341 H   0  0  0  0  0  0  0  0  0  0  0  0
  -10.8814   -0.3071  -10.1563 H   0  0  0  0  0  0  0  0  0  0  0  0
   -8.9506   -1.8067  -10.4047 H   0  0  0  0  0  0  0  0  0  0  0  0
   -1.0678   -4.0538    1.5083 O   0  5  0  0  0  0  0  0  0  0  0  0
  1  2  1  0  0  0  0
  1 40  1  0  0  0  0
  1 41  1  0  0  0  0
  1 42  1  0  0  0  0
  2  3  1  0  0  0  0
  2 31  1  0  0  0  0
  3  4  1  0  0  0  0
  3 43  1  0  0  0  0
  3 44  1  0  0  0  0
  4  5  1  0  0  0  0
  4 45  1  0  0  0  0
  4 46  1  0  0  0  0
  5  6  1  0  0  0  0
  6 11  2  0  0  0  0
  6  7  1  0  0  0  0
  7  8  2  0  0  0  0
  7 47  1  0  0  0  0
  8  9  1  0  0  0  0
  8 48  1  0  0  0  0
  9 10  2  0  0  0  0
  9 12  1  0  0  0  0
 10 11  1  0  0  0  0
 10 49  1  0  0  0  0
 11 50  1  0  0  0  0
 12 13  1  0  0  0  0
 12 51  1  0  0  0  0
 12 52  1  0  0  0  0
 13 14  1  0  0  0  0
 13 15  1  0  0  0  0
 13 17  1  0  0  0  0
 15 16  2  0  0  0  0
 15 67  1  0  0  0  0
 17 18  1  0  0  0  0
 17 53  1  0  0  0  0
 18 23  2  0  0  0  0
 18 19  1  0  0  0  0
 19 20  2  0  0  0  0
 19 54  1  0  0  0  0
 20 21  1  0  0  0  0
 20 55  1  0  0  0  0
 21 22  2  0  0  0  0
 21 56  1  0  0  0  0
 22 23  1  0  0  0  0
 22 57  1  0  0  0  0
 23 24  1  0  0  0  0
 24 25  1  0  0  0  0
 25 30  2  0  0  0  0
 25 26  1  0  0  0  0
 26 27  2  0  0  0  0
 26 58  1  0  0  0  0
 27 28  1  0  0  0  0
 27 59  1  0  0  0  0
 28 29  2  0  0  0  0
 28 60  1  0  0  0  0
 29 30  1  0  0  0  0
 29 61  1  0  0  0  0
 30 62  1  0  0  0  0
 31 39  1  0  0  0  0
 31 32  2  0  0  0  0
 32 33  1  0  0  0  0
 33 38  2  0  0  0  0
 33 34  1  0  0  0  0
 34 35  2  0  0  0  0
 34 63  1  0  0  0  0
 35 36  1  0  0  0  0
 35 64  1  0  0  0  0
 36 37  2  0  0  0  0
 36 65  1  0  0  0  0
 37 38  1  0  0  0  0
 37 66  1  0  0  0  0
 38 39  1  0  0  0  0
M  CHG  1  67  -1
M  END
$$$$
ZINC03832293
  -OEChem-08230709403D

 64 67  0     1  0  0  0  0  0999 V2000
   -1.1421   -1.0430    0.0728 C   0  0  0  0  0  0  0  0  0  0  0  0
    0.0613   -0.1359    0.0616 C   0  0  0  0  0  0  0  0  0  0  0  0
    0.0461    1.2094    0.0463 C   0  0  0  0  0  0  0  0  0  0  0  0
    1.3185    1.6347    0.0402 N   0  0  0  0  0  0  0  0  0  0  0  0
    2.1106    0.5886    0.0513 C   0  0  0  0  0  0  0  0  0  0  0  0
    1.3527   -0.5215    0.0648 O   0  0  0  0  0  0  0  0  0  0  0  0
    3.5884    0.6249    0.0499 C   0  0  0  0  0  0  0  0  0  0  0  0
    4.2595    1.8486    0.0300 C   0  0  0  0  0  0  0  0  0  0  0  0
    5.6388    1.8755    0.0346 C   0  0  0  0  0  0  0  0  0  0  0  0
    6.3568    0.6929    0.0473 C   0  0  0  0  0  0  0  0  0  0  0  0
    5.6977   -0.5235    0.0613 C   0  0  0  0  0  0  0  0  0  0  0  0
    4.3188   -0.5644    0.0627 C   0  0  0  0  0  0  0  0  0  0  0  0
   -1.1818    2.0830    0.0320 C   0  0  0  0  0  0  0  0  0  0  0  0
   -1.6025    2.3950    1.4695 C   0  0  0  0  0  0  0  0  0  0  0  0
   -2.7668    3.2233    1.4559 O   0  0  0  0  0  0  0  0  0  0  0  0
   -3.2739    3.5948    2.6608 C   0  0  0  0  0  0  0  0  0  0  0  0
   -2.6667    3.1660    3.8322 C   0  0  0  0  0  0  0  0  0  0  0  0
   -3.1809    3.5493    5.0557 C   0  0  0  0  0  0  0  0  0  0  0  0
   -4.3060    4.3509    5.1136 C   0  0  0  0  0  0  0  0  0  0  0  0
   -4.9163    4.7749    3.9477 C   0  0  0  0  0  0  0  0  0  0  0  0
   -4.4029    4.3987    2.7216 C   0  0  0  0  0  0  0  0  0  0  0  0
   -4.8682    4.7628    6.4498 C   0  0  0  0  0  0  0  0  0  0  0  0
   -5.8948    3.7269    6.9123 C   0  0  2  0  0  0  0  0  0  0  0  0
   -6.6549    3.5993    6.1416 H   0  0  0  0  0  0  0  0  0  0  0  0
   -6.5459    4.1992    8.1867 C   0  0  0  0  0  0  0  0  0  0  0  0
   -6.4579    3.5351    9.1922 O   0  0  0  0  0  0  0  0  0  0  0  0
   -5.2232    2.4472    7.1523 N   0  0  0  0  0  0  0  0  0  0  0  0
   -5.9396    1.2609    7.0692 C   0  0  0  0  0  0  0  0  0  0  0  0
   -7.3151    1.2878    6.8739 C   0  0  0  0  0  0  0  0  0  0  0  0
   -8.0248    0.1076    6.7922 C   0  0  0  0  0  0  0  0  0  0  0  0
   -7.3748   -1.1118    6.9032 C   0  0  0  0  0  0  0  0  0  0  0  0
   -6.0120   -1.1592    7.0961 C   0  0  0  0  0  0  0  0  0  0  0  0
   -5.2773    0.0275    7.1763 C   0  0  0  0  0  0  0  0  0  0  0  0
   -3.8188   -0.0158    7.3769 C   0  0  0  0  0  0  0  0  0  0  0  0
   -3.1989    1.0144    7.5532 O   0  0  0  0  0  0  0  0  0  0  0  0
   -3.1718   -1.1979    7.3650 O   0  0  0  0  0  0  0  0  0  0  0  0
   -1.7346   -1.1649    7.5692 C   0  0  0  0  0  0  0  0  0  0  0  0
   -1.4328   -1.2734   -0.9522 H   0  0  0  0  0  0  0  0  0  0  0  0
   -0.8961   -1.9665    0.5970 H   0  0  0  0  0  0  0  0  0  0  0  0
   -1.9676   -0.5452    0.5815 H   0  0  0  0  0  0  0  0  0  0  0  0
    3.7001    2.7724    0.0155 H   0  0  0  0  0  0  0  0  0  0  0  0
    6.1593    2.8218    0.0237 H   0  0  0  0  0  0  0  0  0  0  0  0
    7.4365    0.7194    0.0467 H   0  0  0  0  0  0  0  0  0  0  0  0
    6.2641   -1.4431    0.0716 H   0  0  0  0  0  0  0  0  0  0  0  0
    3.8055   -1.5146    0.0740 H   0  0  0  0  0  0  0  0  0  0  0  0
   -0.9600    3.0129   -0.4917 H   0  0  0  0  0  0  0  0  0  0  0  0
   -1.9919    1.5626   -0.4789 H   0  0  0  0  0  0  0  0  0  0  0  0
   -1.8243    1.4651    1.9931 H   0  0  0  0  0  0  0  0  0  0  0  0
   -0.7923    2.9153    1.9804 H   0  0  0  0  0  0  0  0  0  0  0  0
   -1.7903    2.5364    3.7875 H   0  0  0  0  0  0  0  0  0  0  0  0
   -2.7060    3.2194    5.9679 H   0  0  0  0  0  0  0  0  0  0  0  0
   -5.7950    5.4010    3.9955 H   0  0  0  0  0  0  0  0  0  0  0  0
   -4.8802    4.7298    1.8112 H   0  0  0  0  0  0  0  0  0  0  0  0
   -4.0612    4.8257    7.1798 H   0  0  0  0  0  0  0  0  0  0  0  0
   -5.3506    5.7358    6.3566 H   0  0  0  0  0  0  0  0  0  0  0  0
   -4.2779    2.4288    7.3693 H   0  0  0  0  0  0  0  0  0  0  0  0
   -7.8292    2.2335    6.7864 H   0  0  0  0  0  0  0  0  0  0  0  0
   -9.0937    0.1339    6.6403 H   0  0  0  0  0  0  0  0  0  0  0  0
   -7.9402   -2.0296    6.8377 H   0  0  0  0  0  0  0  0  0  0  0  0
   -5.5109   -2.1121    7.1816 H   0  0  0  0  0  0  0  0  0  0  0  0
   -1.3395   -2.1802    7.5365 H   0  0  0  0  0  0  0  0  0  0  0  0
   -1.2697   -0.5686    6.7841 H   0  0  0  0  0  0  0  0  0  0  0  0
   -1.5158   -0.7210    8.5404 H   0  0  0  0  0  0  0  0  0  0  0  0
   -7.2235    5.3578    8.2047 O   0  5  0  0  0  0  0  0  0  0  0  0
  1  2  1  0  0  0  0
  1 38  1  0  0  0  0
  1 39  1  0  0  0  0
  1 40  1  0  0  0  0
  2  6  1  0  0  0  0
  2  3  2  0  0  0  0
  3  4  1  0  0  0  0
  3 13  1  0  0  0  0
  4  5  2  0  0  0  0
  5  6  1  0  0  0  0
  5  7  1  0  0  0  0
  7 12  2  0  0  0  0
  7  8  1  0  0  0  0
  8  9  2  0  0  0  0
  8 41  1  0  0  0  0
  9 10  1  0  0  0  0
  9 42  1  0  0  0  0
 10 11  2  0  0  0  0
 10 43  1  0  0  0  0
 11 12  1  0  0  0  0
 11 44  1  0  0  0  0
 12 45  1  0  0  0  0
 13 14  1  0  0  0  0
 13 46  1  0  0  0  0
 13 47  1  0  0  0  0
 14 15  1  0  0  0  0
 14 48  1  0  0  0  0
 14 49  1  0  0  0  0
 15 16  1  0  0  0  0
 16 21  2  0  0  0  0
 16 17  1  0  0  0  0
 17 18  2  0  0  0  0
 17 50  1  0  0  0  0
 18 19  1  0  0  0  0
 18 51  1  0  0  0  0
 19 20  2  0  0  0  0
 19 22  1  0  0  0  0
 20 21  1  0  0  0  0
 20 52  1  0  0  0  0
 21 53  1  0  0  0  0
 22 23  1  0  0  0  0
 22 54  1  0  0  0  0
 22 55  1  0  0  0  0
 23 24  1  0  0  0  0
 23 25  1  0  0  0  0
 23 27  1  0  0  0  0
 25 26  2  0  0  0  0
 25 64  1  0  0  0  0
 27 28  1  0  0  0  0
 27 56  1  0  0  0  0
 28 33  2  0  0  0  0
 28 29  1  0  0  0  0
 29 30  2  0  0  0  0
 29 57  1  0  0  0  0
 30 31  1  0  0  0  0
 30 58  1  0  0  0  0
 31 32  2  0  0  0  0
 31 59  1  0  0  0  0
 32 33  1  0  0  0  0
 32 60  1  0  0  0  0
 33 34  1  0  0  0  0
 34 35  2  0  0  0  0
 34 36  1  0  0  0  0
 36 37  1  0  0  0  0
 37 61  1  0  0  0  0
 37 62  1  0  0  0  0
 37 63  1  0  0  0  0
M  CHG  1  64  -1
M  END
$$$$
ZINC03832294
  -OEChem-08230709403D

 58 61  0     1  0  0  0  0  0999 V2000
   -2.8343    1.1202   -1.3065 C   0  0  0  0  0  0  0  0  0  0  0  0
   -2.1054   -0.1483   -1.2305 N   0  0  0  0  0  0  0  0  0  0  0  0
   -1.4333   -0.5336    0.0129 C   0  0  0  0  0  0  0  0  0  0  0  0
    0.0021   -0.0041    0.0020 C   0  0  0  0  0  0  0  0  0  0  0  0
   -0.0173    1.4248    0.0099 O   0  0  0  0  0  0  0  0  0  0  0  0
    1.1850    2.0582    0.0018 C   0  0  0  0  0  0  0  0  0  0  0  0
    2.3594    1.3196   -0.0077 C   0  0  0  0  0  0  0  0  0  0  0  0
    3.5803    1.9659   -0.0221 C   0  0  0  0  0  0  0  0  0  0  0  0
    3.6326    3.3475   -0.0147 C   0  0  0  0  0  0  0  0  0  0  0  0
    2.4637    4.0858    0.0004 C   0  0  0  0  0  0  0  0  0  0  0  0
    1.2402    3.4444    0.0087 C   0  0  0  0  0  0  0  0  0  0  0  0
    4.9659    4.0499   -0.0238 C   0  0  0  0  0  0  0  0  0  0  0  0
    5.4309    4.2798    1.4156 C   0  0  2  0  0  0  0  0  0  0  0  0
    4.6593    4.8192    1.9650 H   0  0  0  0  0  0  0  0  0  0  0  0
    6.7020    5.0894    1.4096 C   0  0  0  0  0  0  0  0  0  0  0  0
    7.7105    4.6341    1.8949 O   0  0  0  0  0  0  0  0  0  0  0  0
    5.6776    2.9882    2.0613 N   0  0  0  0  0  0  0  0  0  0  0  0
    5.5983    2.8764    3.4415 C   0  0  0  0  0  0  0  0  0  0  0  0
    5.2851    3.9870    4.2158 C   0  0  0  0  0  0  0  0  0  0  0  0
    5.2073    3.8735    5.5882 C   0  0  0  0  0  0  0  0  0  0  0  0
    5.4390    2.6544    6.2079 C   0  0  0  0  0  0  0  0  0  0  0  0
    5.7502    1.5415    5.4605 C   0  0  0  0  0  0  0  0  0  0  0  0
    5.8288    1.6370    4.0654 C   0  0  0  0  0  0  0  0  0  0  0  0
    6.1539    0.4545    3.2612 C   0  0  0  0  0  0  0  0  0  0  0  0
    6.3518   -0.6123    3.8038 O   0  0  0  0  0  0  0  0  0  0  0  0
   -2.0521   -0.9782   -2.3274 C   0  0  0  0  0  0  0  0  0  0  0  0
   -1.4262   -2.1266   -2.3691 N   0  0  0  0  0  0  0  0  0  0  0  0
   -1.5908   -2.6686   -3.6071 C   0  0  0  0  0  0  0  0  0  0  0  0
   -1.1577   -3.8523   -4.2061 C   0  0  0  0  0  0  0  0  0  0  0  0
   -1.4938   -4.1182   -5.5154 C   0  0  0  0  0  0  0  0  0  0  0  0
   -2.2591   -3.2173   -6.2399 C   0  0  0  0  0  0  0  0  0  0  0  0
   -2.6939   -2.0430   -5.6594 C   0  0  0  0  0  0  0  0  0  0  0  0
   -2.3649   -1.7598   -4.3438 C   0  0  0  0  0  0  0  0  0  0  0  0
   -2.6306   -0.7244   -3.5144 O   0  0  0  0  0  0  0  0  0  0  0  0
   -2.1591    1.9077   -1.6414 H   0  0  0  0  0  0  0  0  0  0  0  0
   -3.6588    1.0238   -2.0128 H   0  0  0  0  0  0  0  0  0  0  0  0
   -3.2272    1.3730   -0.3217 H   0  0  0  0  0  0  0  0  0  0  0  0
   -1.4190   -1.6203    0.0965 H   0  0  0  0  0  0  0  0  0  0  0  0
   -1.9701   -0.1109    0.8621 H   0  0  0  0  0  0  0  0  0  0  0  0
    0.5123   -0.3556   -0.8948 H   0  0  0  0  0  0  0  0  0  0  0  0
    0.5293   -0.3651    0.8851 H   0  0  0  0  0  0  0  0  0  0  0  0
    2.3191    0.2404   -0.0085 H   0  0  0  0  0  0  0  0  0  0  0  0
    4.4947    1.3914   -0.0347 H   0  0  0  0  0  0  0  0  0  0  0  0
    2.5071    5.1650    0.0062 H   0  0  0  0  0  0  0  0  0  0  0  0
    0.3274    4.0215    0.0202 H   0  0  0  0  0  0  0  0  0  0  0  0
    5.6971    3.4346   -0.5479 H   0  0  0  0  0  0  0  0  0  0  0  0
    4.8676    5.0094   -0.5315 H   0  0  0  0  0  0  0  0  0  0  0  0
    5.8965    2.2111    1.5236 H   0  0  0  0  0  0  0  0  0  0  0  0
    5.1027    4.9404    3.7423 H   0  0  0  0  0  0  0  0  0  0  0  0
    4.9638    4.7402    6.1848 H   0  0  0  0  0  0  0  0  0  0  0  0
    5.3744    2.5780    7.2832 H   0  0  0  0  0  0  0  0  0  0  0  0
    5.9296    0.5950    5.9487 H   0  0  0  0  0  0  0  0  0  0  0  0
    6.2171    0.5334    2.1859 H   0  0  0  0  0  0  0  0  0  0  0  0
   -0.5616   -4.5571   -3.6455 H   0  0  0  0  0  0  0  0  0  0  0  0
   -1.1596   -5.0341   -5.9801 H   0  0  0  0  0  0  0  0  0  0  0  0
   -2.5165   -3.4358   -7.2658 H   0  0  0  0  0  0  0  0  0  0  0  0
   -3.2895   -1.3457   -6.2300 H   0  0  0  0  0  0  0  0  0  0  0  0
    6.7137    6.3162    0.8651 O   0  5  0  0  0  0  0  0  0  0  0  0
  1  2  1  0  0  0  0
  1 35  1  0  0  0  0
  1 36  1  0  0  0  0
  1 37  1  0  0  0  0
  2  3  1  0  0  0  0
  2 26  1  0  0  0  0
  3  4  1  0  0  0  0
  3 38  1  0  0  0  0
  3 39  1  0  0  0  0
  4  5  1  0  0  0  0
  4 40  1  0  0  0  0
  4 41  1  0  0  0  0
  5  6  1  0  0  0  0
  6 11  2  0  0  0  0
  6  7  1  0  0  0  0
  7  8  2  0  0  0  0
  7 42  1  0  0  0  0
  8  9  1  0  0  0  0
  8 43  1  0  0  0  0
  9 10  2  0  0  0  0
  9 12  1  0  0  0  0
 10 11  1  0  0  0  0
 10 44  1  0  0  0  0
 11 45  1  0  0  0  0
 12 13  1  0  0  0  0
 12 46  1  0  0  0  0
 12 47  1  0  0  0  0
 13 14  1  0  0  0  0
 13 15  1  0  0  0  0
 13 17  1  0  0  0  0
 15 16  2  0  0  0  0
 15 58  1  0  0  0  0
 17 18  1  0  0  0  0
 17 48  1  0  0  0  0
 18 23  2  0  0  0  0
 18 19  1  0  0  0  0
 19 20  2  0  0  0  0
 19 49  1  0  0  0  0
 20 21  1  0  0  0  0
 20 50  1  0  0  0  0
 21 22  2  0  0  0  0
 21 51  1  0  0  0  0
 22 23  1  0  0  0  0
 22 52  1  0  0  0  0
 23 24  1  0  0  0  0
 24 25  2  0  0  0  0
 24 53  1  0  0  0  0
 26 34  1  0  0  0  0
 26 27  2  0  0  0  0
 27 28  1  0  0  0  0
 28 33  2  0  0  0  0
 28 29  1  0  0  0  0
 29 30  2  0  0  0  0
 29 54  1  0  0  0  0
 30 31  1  0  0  0  0
 30 55  1  0  0  0  0
 31 32  2  0  0  0  0
 31 56  1  0  0  0  0
 32 33  1  0  0  0  0
 32 57  1  0  0  0  0
 33 34  1  0  0  0  0
M  CHG  1  58  -1
M  END
$$$$
ZINC03832295
  -OEChem-08230709403D

 70 74  0     1  0  0  0  0  0999 V2000
    7.7968    2.4283    0.2274 C   0  0  0  0  0  0  0  0  0  0  0  0
    6.3051    2.6239    0.1399 C   0  0  0  0  0  0  0  0  0  0  0  0
    5.4106    1.6730    0.0818 N   0  0  0  0  0  0  0  0  0  0  0  0
    4.1844    2.2080    0.0088 C   0  0  0  0  0  0  0  0  0  0  0  0
    4.2941    3.5182    0.0291 N   0  0  0  0  0  0  0  0  0  0  0  0
    5.6658    3.8072    0.1142 N   0  0  0  0  0  0  0  0  0  0  0  0
    6.2799    5.1364    0.1642 C   0  0  0  0  0  0  0  0  0  0  0  0
    6.4080    5.5845    1.6214 C   0  0  0  0  0  0  0  0  0  0  0  0
    7.0070    6.8810    1.6702 O   0  0  0  0  0  0  0  0  0  0  0  0
    7.1937    7.4285    2.8999 C   0  0  0  0  0  0  0  0  0  0  0  0
    6.8031    6.7347    4.0360 C   0  0  0  0  0  0  0  0  0  0  0  0
    6.9988    7.2912    5.2852 C   0  0  0  0  0  0  0  0  0  0  0  0
    7.5738    8.5431    5.4032 C   0  0  0  0  0  0  0  0  0  0  0  0
    7.9587    9.2390    4.2722 C   0  0  0  0  0  0  0  0  0  0  0  0
    7.7700    8.6847    3.0210 C   0  0  0  0  0  0  0  0  0  0  0  0
    7.7809    9.1502    6.7669 C   0  0  0  0  0  0  0  0  0  0  0  0
    6.5441    9.9621    7.1568 C   0  0  2  0  0  0  0  0  0  0  0  0
    6.3331   10.6980    6.3809 H   0  0  0  0  0  0  0  0  0  0  0  0
    6.7984   10.6687    8.4634 C   0  0  0  0  0  0  0  0  0  0  0  0
    6.0932   10.4447    9.4186 O   0  0  0  0  0  0  0  0  0  0  0  0
    5.3962    9.0637    7.3028 N   0  0  0  0  0  0  0  0  0  0  0  0
    4.1074    9.5517    7.1369 C   0  0  0  0  0  0  0  0  0  0  0  0
    3.8944   10.9114    6.9457 C   0  0  0  0  0  0  0  0  0  0  0  0
    2.6130   11.3932    6.7753 C   0  0  0  0  0  0  0  0  0  0  0  0
    1.5281   10.5301    6.8045 C   0  0  0  0  0  0  0  0  0  0  0  0
    1.7176    9.1801    6.9985 C   0  0  0  0  0  0  0  0  0  0  0  0
    3.0105    8.6744    7.1671 C   0  0  0  0  0  0  0  0  0  0  0  0
    3.2209    7.2313    7.3755 C   0  0  0  0  0  0  0  0  0  0  0  0
    3.1304    6.4621    6.4380 O   0  0  0  0  0  0  0  0  0  0  0  0
    3.5420    6.7184    8.7241 C   0  0  0  0  0  0  0  0  0  0  0  0
    3.5405    7.5819    9.8216 C   0  0  0  0  0  0  0  0  0  0  0  0
    3.8354    7.0954   11.0781 C   0  0  0  0  0  0  0  0  0  0  0  0
    4.1434    5.7574   11.2508 C   0  0  0  0  0  0  0  0  0  0  0  0
    4.1523    4.8974   10.1667 C   0  0  0  0  0  0  0  0  0  0  0  0
    3.8537    5.3694    8.9055 C   0  0  0  0  0  0  0  0  0  0  0  0
    2.9126    1.4477   -0.0748 C   0  0  0  0  0  0  0  0  0  0  0  0
    1.6964    2.1245   -0.1394 C   0  0  0  0  0  0  0  0  0  0  0  0
    0.5166    1.4124   -0.2174 C   0  0  0  0  0  0  0  0  0  0  0  0
    0.5402    0.0295   -0.2311 C   0  0  0  0  0  0  0  0  0  0  0  0
    1.7447   -0.6475   -0.1663 C   0  0  0  0  0  0  0  0  0  0  0  0
    2.9304    0.0546   -0.0885 C   0  0  0  0  0  0  0  0  0  0  0  0
    8.0948    2.3702    1.2743 H   0  0  0  0  0  0  0  0  0  0  0  0
    8.0725    1.5042   -0.2807 H   0  0  0  0  0  0  0  0  0  0  0  0
    8.3020    3.2690   -0.2480 H   0  0  0  0  0  0  0  0  0  0  0  0
    7.2690    5.0970   -0.2921 H   0  0  0  0  0  0  0  0  0  0  0  0
    5.6564    5.8454   -0.3805 H   0  0  0  0  0  0  0  0  0  0  0  0
    5.4189    5.6239    2.0778 H   0  0  0  0  0  0  0  0  0  0  0  0
    7.0314    4.8755    2.1661 H   0  0  0  0  0  0  0  0  0  0  0  0
    6.3501    5.7586    3.9441 H   0  0  0  0  0  0  0  0  0  0  0  0
    6.6990    6.7496    6.1701 H   0  0  0  0  0  0  0  0  0  0  0  0
    8.4076   10.2167    4.3670 H   0  0  0  0  0  0  0  0  0  0  0  0
    8.0711    9.2285    2.1379 H   0  0  0  0  0  0  0  0  0  0  0  0
    7.9399    8.3570    7.4974 H   0  0  0  0  0  0  0  0  0  0  0  0
    8.6527    9.8041    6.7449 H   0  0  0  0  0  0  0  0  0  0  0  0
    5.5368    8.1278    7.5154 H   0  0  0  0  0  0  0  0  0  0  0  0
    4.7334   11.5913    6.9260 H   0  0  0  0  0  0  0  0  0  0  0  0
    2.4533   12.4503    6.6222 H   0  0  0  0  0  0  0  0  0  0  0  0
    0.5289   10.9189    6.6749 H   0  0  0  0  0  0  0  0  0  0  0  0
    0.8689    8.5126    7.0200 H   0  0  0  0  0  0  0  0  0  0  0  0
    3.3050    8.6273    9.6874 H   0  0  0  0  0  0  0  0  0  0  0  0
    3.8306    7.7613   11.9285 H   0  0  0  0  0  0  0  0  0  0  0  0
    4.3783    5.3827   12.2361 H   0  0  0  0  0  0  0  0  0  0  0  0
    4.3933    3.8542   10.3085 H   0  0  0  0  0  0  0  0  0  0  0  0
    3.8614    4.6972    8.0602 H   0  0  0  0  0  0  0  0  0  0  0  0
    1.6770    3.2042   -0.1292 H   0  0  0  0  0  0  0  0  0  0  0  0
   -0.4263    1.9360   -0.2724 H   0  0  0  0  0  0  0  0  0  0  0  0
   -0.3853   -0.5238   -0.2923 H   0  0  0  0  0  0  0  0  0  0  0  0
    1.7573   -1.7273   -0.1770 H   0  0  0  0  0  0  0  0  0  0  0  0
    3.8704   -0.4749   -0.0386 H   0  0  0  0  0  0  0  0  0  0  0  0
    7.8084   11.5468    8.5661 O   0  5  0  0  0  0  0  0  0  0  0  0
  1  2  1  0  0  0  0
  1 42  1  0  0  0  0
  1 43  1  0  0  0  0
  1 44  1  0  0  0  0
  2  6  1  0  0  0  0
  2  3  2  0  0  0  0
  3  4  1  0  0  0  0
  4  5  2  0  0  0  0
  4 36  1  0  0  0  0
  5  6  1  0  0  0  0
  6  7  1  0  0  0  0
  7  8  1  0  0  0  0
  7 45  1  0  0  0  0
  7 46  1  0  0  0  0
  8  9  1  0  0  0  0
  8 47  1  0  0  0  0
  8 48  1  0  0  0  0
  9 10  1  0  0  0  0
 10 15  2  0  0  0  0
 10 11  1  0  0  0  0
 11 12  2  0  0  0  0
 11 49  1  0  0  0  0
 12 13  1  0  0  0  0
 12 50  1  0  0  0  0
 13 14  2  0  0  0  0
 13 16  1  0  0  0  0
 14 15  1  0  0  0  0
 14 51  1  0  0  0  0
 15 52  1  0  0  0  0
 16 17  1  0  0  0  0
 16 53  1  0  0  0  0
 16 54  1  0  0  0  0
 17 18  1  0  0  0  0
 17 19  1  0  0  0  0
 17 21  1  0  0  0  0
 19 20  2  0  0  0  0
 19 70  1  0  0  0  0
 21 22  1  0  0  0  0
 21 55  1  0  0  0  0
 22 27  2  0  0  0  0
 22 23  1  0  0  0  0
 23 24  2  0  0  0  0
 23 56  1  0  0  0  0
 24 25  1  0  0  0  0
 24 57  1  0  0  0  0
 25 26  2  0  0  0  0
 25 58  1  0  0  0  0
 26 27  1  0  0  0  0
 26 59  1  0  0  0  0
 27 28  1  0  0  0  0
 28 29  2  0  0  0  0
 28 30  1  0  0  0  0
 30 35  2  0  0  0  0
 30 31  1  0  0  0  0
 31 32  2  0  0  0  0
 31 60  1  0  0  0  0
 32 33  1  0  0  0  0
 32 61  1  0  0  0  0
 33 34  2  0  0  0  0
 33 62  1  0  0  0  0
 34 35  1  0  0  0  0
 34 63  1  0  0  0  0
 35 64  1  0  0  0  0
 36 41  2  0  0  0  0
 36 37  1  0  0  0  0
 37 38  2  0  0  0  0
 37 65  1  0  0  0  0
 38 39  1  0  0  0  0
 38 66  1  0  0  0  0
 39 40  2  0  0  0  0
 39 67  1  0  0  0  0
 40 41  1  0  0  0  0
 40 68  1  0  0  0  0
 41 69  1  0  0  0  0
M  CHG  1  70  -1
M  END
$$$$
ZINC03832296
  -OEChem-08230709403D

 68 73  0     1  0  0  0  0  0999 V2000
    5.5335   -2.6402   -8.9593 C   0  0  0  0  0  0  0  0  0  0  0  0
    4.7765   -3.7658   -8.4059 N   0  0  0  0  0  0  0  0  0  0  0  0
    3.5174   -3.5239   -7.6971 C   0  0  0  0  0  0  0  0  0  0  0  0
    3.8021   -3.3153   -6.2083 C   0  0  0  0  0  0  0  0  0  0  0  0
    4.5699   -2.1230   -6.0327 O   0  0  0  0  0  0  0  0  0  0  0  0
    4.9104   -1.7903   -4.7598 C   0  0  0  0  0  0  0  0  0  0  0  0
    5.6553   -0.6455   -4.5164 C   0  0  0  0  0  0  0  0  0  0  0  0
    6.0006   -0.3098   -3.2217 C   0  0  0  0  0  0  0  0  0  0  0  0
    5.6039   -1.1133   -2.1687 C   0  0  0  0  0  0  0  0  0  0  0  0
    4.8663   -2.2578   -2.4091 C   0  0  0  0  0  0  0  0  0  0  0  0
    4.5141   -2.5951   -3.7016 C   0  0  0  0  0  0  0  0  0  0  0  0
    5.9815   -0.7444   -0.7572 C   0  0  0  0  0  0  0  0  0  0  0  0
    4.8928    0.1454   -0.1540 C   0  0  2  0  0  0  0  0  0  0  0  0
    4.7295    1.0081   -0.7998 H   0  0  0  0  0  0  0  0  0  0  0  0
    5.3264    0.6145    1.2109 C   0  0  0  0  0  0  0  0  0  0  0  0
    4.6639    0.3392    2.1831 O   0  0  0  0  0  0  0  0  0  0  0  0
    3.6482   -0.6183   -0.0353 N   0  0  0  0  0  0  0  0  0  0  0  0
    2.4292    0.0412   -0.0208 C   0  0  0  0  0  0  0  0  0  0  0  0
    2.3721    1.4174   -0.2482 C   0  0  0  0  0  0  0  0  0  0  0  0
    1.1620    2.0763   -0.2334 C   0  0  0  0  0  0  0  0  0  0  0  0
   -0.0168    1.3846    0.0062 C   0  0  0  0  0  0  0  0  0  0  0  0
    0.0151    0.0150    0.2344 C   0  0  0  0  0  0  0  0  0  0  0  0
    1.2479   -0.6680    0.2223 C   0  0  0  0  0  0  0  0  0  0  0  0
    1.2811   -2.1211    0.4649 C   0  0  0  0  0  0  0  0  0  0  0  0
    2.3336   -2.6805    0.7045 O   0  0  0  0  0  0  0  0  0  0  0  0
    0.0190   -2.8919    0.4131 C   0  0  0  0  0  0  0  0  0  0  0  0
    0.0401   -4.2810    0.3520 C   0  0  0  0  0  0  0  0  0  0  0  0
   -1.1502   -4.9858    0.3034 C   0  0  0  0  0  0  0  0  0  0  0  0
   -2.3615   -4.3183    0.3159 C   0  0  0  0  0  0  0  0  0  0  0  0
   -2.4004   -2.9361    0.3758 C   0  0  0  0  0  0  0  0  0  0  0  0
   -1.2132   -2.2126    0.4253 C   0  0  0  0  0  0  0  0  0  0  0  0
   -1.2337   -0.7350    0.4901 C   0  0  0  0  0  0  0  0  0  0  0  0
   -2.2637   -0.1448    0.7497 O   0  0  0  0  0  0  0  0  0  0  0  0
    5.2482   -5.0507   -8.5518 C   0  0  0  0  0  0  0  0  0  0  0  0
    4.6560   -6.1235   -8.0930 N   0  0  0  0  0  0  0  0  0  0  0  0
    5.4040   -7.2112   -8.4262 C   0  0  0  0  0  0  0  0  0  0  0  0
    5.2626   -8.5820   -8.2062 C   0  0  0  0  0  0  0  0  0  0  0  0
    6.2215   -9.4520   -8.6768 C   0  0  0  0  0  0  0  0  0  0  0  0
    7.3246   -8.9735   -9.3669 C   0  0  0  0  0  0  0  0  0  0  0  0
    7.4765   -7.6200   -9.5914 C   0  0  0  0  0  0  0  0  0  0  0  0
    6.5217   -6.7312   -9.1249 C   0  0  0  0  0  0  0  0  0  0  0  0
    6.3878   -5.3861   -9.1817 O   0  0  0  0  0  0  0  0  0  0  0  0
    6.2363   -2.2725   -8.2117 H   0  0  0  0  0  0  0  0  0  0  0  0
    6.0814   -2.9699   -9.8420 H   0  0  0  0  0  0  0  0  0  0  0  0
    4.8459   -1.8409   -9.2358 H   0  0  0  0  0  0  0  0  0  0  0  0
    2.8581   -4.3826   -7.8241 H   0  0  0  0  0  0  0  0  0  0  0  0
    3.0370   -2.6338   -8.1033 H   0  0  0  0  0  0  0  0  0  0  0  0
    4.3613   -4.1677   -5.8224 H   0  0  0  0  0  0  0  0  0  0  0  0
    2.8601   -3.2238   -5.6676 H   0  0  0  0  0  0  0  0  0  0  0  0
    5.9648   -0.0171   -5.3385 H   0  0  0  0  0  0  0  0  0  0  0  0
    6.5805    0.5813   -3.0317 H   0  0  0  0  0  0  0  0  0  0  0  0
    4.5617   -2.8864   -1.5854 H   0  0  0  0  0  0  0  0  0  0  0  0
    3.9344   -3.4870   -3.8885 H   0  0  0  0  0  0  0  0  0  0  0  0
    6.9290   -0.2055   -0.7636 H   0  0  0  0  0  0  0  0  0  0  0  0
    6.0828   -1.6503   -0.1596 H   0  0  0  0  0  0  0  0  0  0  0  0
    3.6773   -1.5855    0.0332 H   0  0  0  0  0  0  0  0  0  0  0  0
    3.2815    1.9687   -0.4365 H   0  0  0  0  0  0  0  0  0  0  0  0
    1.1307    3.1413   -0.4102 H   0  0  0  0  0  0  0  0  0  0  0  0
   -0.9600    1.9106    0.0106 H   0  0  0  0  0  0  0  0  0  0  0  0
    0.9825   -4.8084    0.3430 H   0  0  0  0  0  0  0  0  0  0  0  0
   -1.1331   -6.0646    0.2557 H   0  0  0  0  0  0  0  0  0  0  0  0
   -3.2835   -4.8795    0.2784 H   0  0  0  0  0  0  0  0  0  0  0  0
   -3.3495   -2.4208    0.3853 H   0  0  0  0  0  0  0  0  0  0  0  0
    4.4048   -8.9593   -7.6694 H   0  0  0  0  0  0  0  0  0  0  0  0
    6.1131  -10.5131   -8.5075 H   0  0  0  0  0  0  0  0  0  0  0  0
    8.0704   -9.6645   -9.7312 H   0  0  0  0  0  0  0  0  0  0  0  0
    8.3386   -7.2544  -10.1295 H   0  0  0  0  0  0  0  0  0  0  0  0
    6.4487    1.3382    1.3466 O   0  5  0  0  0  0  0  0  0  0  0  0
  1  2  1  0  0  0  0
  1 43  1  0  0  0  0
  1 44  1  0  0  0  0
  1 45  1  0  0  0  0
  2  3  1  0  0  0  0
  2 34  1  0  0  0  0
  3  4  1  0  0  0  0
  3 46  1  0  0  0  0
  3 47  1  0  0  0  0
  4  5  1  0  0  0  0
  4 48  1  0  0  0  0
  4 49  1  0  0  0  0
  5  6  1  0  0  0  0
  6 11  2  0  0  0  0
  6  7  1  0  0  0  0
  7  8  2  0  0  0  0
  7 50  1  0  0  0  0
  8  9  1  0  0  0  0
  8 51  1  0  0  0  0
  9 10  2  0  0  0  0
  9 12  1  0  0  0  0
 10 11  1  0  0  0  0
 10 52  1  0  0  0  0
 11 53  1  0  0  0  0
 12 13  1  0  0  0  0
 12 54  1  0  0  0  0
 12 55  1  0  0  0  0
 13 14  1  0  0  0  0
 13 15  1  0  0  0  0
 13 17  1  0  0  0  0
 15 16  2  0  0  0  0
 15 68  1  0  0  0  0
 17 18  1  0  0  0  0
 17 56  1  0  0  0  0
 18 23  2  0  0  0  0
 18 19  1  0  0  0  0
 19 20  2  0  0  0  0
 19 57  1  0  0  0  0
 20 21  1  0  0  0  0
 20 58  1  0  0  0  0
 21 22  2  0  0  0  0
 21 59  1  0  0  0  0
 22 32  1  0  0  0  0
 22 23  1  0  0  0  0
 23 24  1  0  0  0  0
 24 25  2  0  0  0  0
 24 26  1  0  0  0  0
 26 31  2  0  0  0  0
 26 27  1  0  0  0  0
 27 28  2  0  0  0  0
 27 60  1  0  0  0  0
 28 29  1  0  0  0  0
 28 61  1  0  0  0  0
 29 30  2  0  0  0  0
 29 62  1  0  0  0  0
 30 31  1  0  0  0  0
 30 63  1  0  0  0  0
 31 32  1  0  0  0  0
 32 33  2  0  0  0  0
 34 42  1  0  0  0  0
 34 35  2  0  0  0  0
 35 36  1  0  0  0  0
 36 41  2  0  0  0  0
 36 37  1  0  0  0  0
 37 38  2  0  0  0  0
 37 64  1  0  0  0  0
 38 39  1  0  0  0  0
 38 65  1  0  0  0  0
 39 40  2  0  0  0  0
 39 66  1  0  0  0  0
 40 41  1  0  0  0  0
 40 67  1  0  0  0  0
 41 42  1  0  0  0  0
M  CHG  1  68  -1
M  END
$$$$
ZINC03832297
  -OEChem-08230709403D

 79 83  0     1  0  0  0  0  0999 V2000
   -1.3640    7.7153   -0.0987 C   0  0  0  0  0  0  0  0  0  0  0  0
   -1.1423    6.2372   -0.2917 C   0  0  0  0  0  0  0  0  0  0  0  0
   -0.8426    5.4362    0.7912 C   0  0  0  0  0  0  0  0  0  0  0  0
   -0.6358    4.0717    0.6186 C   0  0  0  0  0  0  0  0  0  0  0  0
   -0.7348    3.5157   -0.6449 C   0  0  0  0  0  0  0  0  0  0  0  0
   -1.0352    4.3203   -1.7309 C   0  0  0  0  0  0  0  0  0  0  0  0
   -1.2388    5.6801   -1.5580 C   0  0  0  0  0  0  0  0  0  0  0  0
   -1.5331    6.4664   -2.6277 O   0  0  0  0  0  0  0  0  0  0  0  0
   -1.1406    3.7149   -3.1070 C   0  0  0  0  0  0  0  0  0  0  0  0
   -0.5230    2.0404   -0.8729 C   0  0  0  0  0  0  0  0  0  0  0  0
    0.2131    1.4340    0.3244 C   0  0  0  0  0  0  0  0  0  0  0  0
   -0.4842    1.9031    1.6077 C   0  0  1  0  0  0  0  0  0  0  0  0
   -0.3335    3.3196    1.7100 O   0  0  0  0  0  0  0  0  0  0  0  0
   -1.9710    1.5472    1.5460 C   0  0  0  0  0  0  0  0  0  0  0  0
    0.1585    1.2267    2.8203 C   0  0  0  0  0  0  0  0  0  0  0  0
   -0.5675    1.5756    4.0007 O   0  0  0  0  0  0  0  0  0  0  0  0
   -0.1239    1.0539    5.1746 C   0  0  0  0  0  0  0  0  0  0  0  0
    0.9837    0.2188    5.1893 C   0  0  0  0  0  0  0  0  0  0  0  0
    1.4364   -0.3053    6.3847 C   0  0  0  0  0  0  0  0  0  0  0  0
    0.7790   -0.0080    7.5642 C   0  0  0  0  0  0  0  0  0  0  0  0
   -0.3286    0.8196    7.5514 C   0  0  0  0  0  0  0  0  0  0  0  0
   -0.7815    1.3511    6.3595 C   0  0  0  0  0  0  0  0  0  0  0  0
    1.2709   -0.5864    8.8659 C   0  0  0  0  0  0  0  0  0  0  0  0
    0.5826   -1.9291    9.1198 C   0  0  2  0  0  0  0  0  0  0  0  0
   -0.4986   -1.7955    9.0845 H   0  0  0  0  0  0  0  0  0  0  0  0
    0.9806   -2.4488   10.4771 C   0  0  0  0  0  0  0  0  0  0  0  0
    1.5464   -3.5120   10.5749 O   0  0  0  0  0  0  0  0  0  0  0  0
    0.9899   -2.8889    8.0906 N   0  0  0  0  0  0  0  0  0  0  0  0
    0.1652   -3.9599    7.7751 C   0  0  0  0  0  0  0  0  0  0  0  0
   -0.9921   -4.1903    8.5088 C   0  0  0  0  0  0  0  0  0  0  0  0
   -1.8104   -5.2551    8.1929 C   0  0  0  0  0  0  0  0  0  0  0  0
   -1.4871   -6.1027    7.1442 C   0  0  0  0  0  0  0  0  0  0  0  0
   -0.3450   -5.8912    6.4048 C   0  0  0  0  0  0  0  0  0  0  0  0
    0.4930   -4.8135    6.7086 C   0  0  0  0  0  0  0  0  0  0  0  0
    1.7139   -4.5780    5.9187 C   0  0  0  0  0  0  0  0  0  0  0  0
    1.6340   -4.0962    4.8050 O   0  0  0  0  0  0  0  0  0  0  0  0
    3.0360   -4.9274    6.4798 C   0  0  0  0  0  0  0  0  0  0  0  0
    3.1251   -5.5799    7.7112 C   0  0  0  0  0  0  0  0  0  0  0  0
    4.3619   -5.9072    8.2266 C   0  0  0  0  0  0  0  0  0  0  0  0
    5.5131   -5.5815    7.5312 C   0  0  0  0  0  0  0  0  0  0  0  0
    5.4322   -4.9298    6.3131 C   0  0  0  0  0  0  0  0  0  0  0  0
    4.2017   -4.6013    5.7835 C   0  0  0  0  0  0  0  0  0  0  0  0
   -0.7388    6.0425    2.1669 C   0  0  0  0  0  0  0  0  0  0  0  0
   -2.4196    7.9016    0.0991 H   0  0  0  0  0  0  0  0  0  0  0  0
   -0.7691    8.0647    0.7452 H   0  0  0  0  0  0  0  0  0  0  0  0
   -1.0636    8.2486   -1.0006 H   0  0  0  0  0  0  0  0  0  0  0  0
   -2.4798    6.5483   -2.8070 H   0  0  0  0  0  0  0  0  0  0  0  0
   -2.1682    3.3992   -3.2873 H   0  0  0  0  0  0  0  0  0  0  0  0
   -0.8518    4.4554   -3.8528 H   0  0  0  0  0  0  0  0  0  0  0  0
   -0.4781    2.8521   -3.1760 H   0  0  0  0  0  0  0  0  0  0  0  0
    0.0705    1.8944   -1.7754 H   0  0  0  0  0  0  0  0  0  0  0  0
   -1.4889    1.5494   -0.9914 H   0  0  0  0  0  0  0  0  0  0  0  0
    0.1788    0.3462    0.2642 H   0  0  0  0  0  0  0  0  0  0  0  0
    1.2503    1.7692    0.3262 H   0  0  0  0  0  0  0  0  0  0  0  0
   -2.0823    0.4673    1.4483 H   0  0  0  0  0  0  0  0  0  0  0  0
   -2.4629    1.8820    2.4592 H   0  0  0  0  0  0  0  0  0  0  0  0
   -2.4269    2.0387    0.6865 H   0  0  0  0  0  0  0  0  0  0  0  0
    0.1369    0.1451    2.6868 H   0  0  0  0  0  0  0  0  0  0  0  0
    1.1916    1.5603    2.9172 H   0  0  0  0  0  0  0  0  0  0  0  0
    1.4946   -0.0177    4.2676 H   0  0  0  0  0  0  0  0  0  0  0  0
    2.3017   -0.9514    6.3973 H   0  0  0  0  0  0  0  0  0  0  0  0
   -0.8399    1.0509    8.4742 H   0  0  0  0  0  0  0  0  0  0  0  0
   -1.6464    1.9977    6.3501 H   0  0  0  0  0  0  0  0  0  0  0  0
    2.3494   -0.7353    8.8129 H   0  0  0  0  0  0  0  0  0  0  0  0
    1.0385    0.1006    9.6796 H   0  0  0  0  0  0  0  0  0  0  0  0
    1.8359   -2.7760    7.6297 H   0  0  0  0  0  0  0  0  0  0  0  0
   -1.2512   -3.5352    9.3274 H   0  0  0  0  0  0  0  0  0  0  0  0
   -2.7090   -5.4295    8.7661 H   0  0  0  0  0  0  0  0  0  0  0  0
   -2.1351   -6.9333    6.9058 H   0  0  0  0  0  0  0  0  0  0  0  0
   -0.0984   -6.5547    5.5891 H   0  0  0  0  0  0  0  0  0  0  0  0
    2.2276   -5.8313    8.2567 H   0  0  0  0  0  0  0  0  0  0  0  0
    4.4322   -6.4152    9.1771 H   0  0  0  0  0  0  0  0  0  0  0  0
    6.4791   -5.8367    7.9412 H   0  0  0  0  0  0  0  0  0  0  0  0
    6.3346   -4.6782    5.7758 H   0  0  0  0  0  0  0  0  0  0  0  0
    4.1400   -4.0927    4.8328 H   0  0  0  0  0  0  0  0  0  0  0  0
   -1.7158    6.0178    2.6495 H   0  0  0  0  0  0  0  0  0  0  0  0
   -0.0250    5.4730    2.7621 H   0  0  0  0  0  0  0  0  0  0  0  0
   -0.4005    7.0754    2.0842 H   0  0  0  0  0  0  0  0  0  0  0  0
    0.7065   -1.7308   11.5776 O   0  5  0  0  0  0  0  0  0  0  0  0
  1  2  1  0  0  0  0
  1 44  1  0  0  0  0
  1 45  1  0  0  0  0
  1 46  1  0  0  0  0
  2  7  2  0  0  0  0
  2  3  1  0  0  0  0
  3  4  2  0  0  0  0
  3 43  1  0  0  0  0
  4 13  1  0  0  0  0
  4  5  1  0  0  0  0
  5  6  2  0  0  0  0
  5 10  1  0  0  0  0
  6  7  1  0  0  0  0
  6  9  1  0  0  0  0
  7  8  1  0  0  0  0
  8 47  1  0  0  0  0
  9 48  1  0  0  0  0
  9 49  1  0  0  0  0
  9 50  1  0  0  0  0
 10 11  1  0  0  0  0
 10 51  1  0  0  0  0
 10 52  1  0  0  0  0
 11 12  1  0  0  0  0
 11 53  1  0  0  0  0
 11 54  1  0  0  0  0
 12 13  1  0  0  0  0
 12 14  1  0  0  0  0
 12 15  1  0  0  0  0
 14 55  1  0  0  0  0
 14 56  1  0  0  0  0
 14 57  1  0  0  0  0
 15 16  1  0  0  0  0
 15 58  1  0  0  0  0
 15 59  1  0  0  0  0
 16 17  1  0  0  0  0
 17 22  2  0  0  0  0
 17 18  1  0  0  0  0
 18 19  2  0  0  0  0
 18 60  1  0  0  0  0
 19 20  1  0  0  0  0
 19 61  1  0  0  0  0
 20 21  2  0  0  0  0
 20 23  1  0  0  0  0
 21 22  1  0  0  0  0
 21 62  1  0  0  0  0
 22 63  1  0  0  0  0
 23 24  1  0  0  0  0
 23 64  1  0  0  0  0
 23 65  1  0  0  0  0
 24 25  1  0  0  0  0
 24 26  1  0  0  0  0
 24 28  1  0  0  0  0
 26 27  2  0  0  0  0
 26 79  1  0  0  0  0
 28 29  1  0  0  0  0
 28 66  1  0  0  0  0
 29 34  2  0  0  0  0
 29 30  1  0  0  0  0
 30 31  2  0  0  0  0
 30 67  1  0  0  0  0
 31 32  1  0  0  0  0
 31 68  1  0  0  0  0
 32 33  2  0  0  0  0
 32 69  1  0  0  0  0
 33 34  1  0  0  0  0
 33 70  1  0  0  0  0
 34 35  1  0  0  0  0
 35 36  2  0  0  0  0
 35 37  1  0  0  0  0
 37 42  2  0  0  0  0
 37 38  1  0  0  0  0
 38 39  2  0  0  0  0
 38 71  1  0  0  0  0
 39 40  1  0  0  0  0
 39 72  1  0  0  0  0
 40 41  2  0  0  0  0
 40 73  1  0  0  0  0
 41 42  1  0  0  0  0
 41 74  1  0  0  0  0
 42 75  1  0  0  0  0
 43 76  1  0  0  0  0
 43 77  1  0  0  0  0
 43 78  1  0  0  0  0
M  CHG  1  79  -1
M  END
$$$$
ZINC03832298
  -OEChem-08230709403D

 66 69  0     1  0  0  0  0  0999 V2000
    0.0304    6.3435    8.8154 C   0  0  0  0  0  0  0  0  0  0  0  0
    1.1977    5.9648    9.7293 C   0  0  0  0  0  0  0  0  0  0  0  0
    1.8816    4.7360    9.1876 C   0  0  0  0  0  0  0  0  0  0  0  0
    1.4700    3.4719    9.5821 C   0  0  0  0  0  0  0  0  0  0  0  0
    2.1249    2.3701    9.0540 C   0  0  0  0  0  0  0  0  0  0  0  0
    3.1665    2.5670    8.1669 C   0  0  0  0  0  0  0  0  0  0  0  0
    3.5310    3.7841    7.8142 N   0  0  0  0  0  0  0  0  0  0  0  0
    2.9271    4.8548    8.2919 C   0  0  0  0  0  0  0  0  0  0  0  0
    3.8899    1.3767    7.5916 C   0  0  0  0  0  0  0  0  0  0  0  0
    3.8574    1.4498    6.0637 C   0  0  0  0  0  0  0  0  0  0  0  0
    4.5434    0.3211    5.5181 O   0  0  0  0  0  0  0  0  0  0  0  0
    4.6067    0.2333    4.1635 C   0  0  0  0  0  0  0  0  0  0  0  0
    5.2575   -0.8365    3.5662 C   0  0  0  0  0  0  0  0  0  0  0  0
    5.3201   -0.9238    2.1890 C   0  0  0  0  0  0  0  0  0  0  0  0
    4.7350    0.0540    1.4058 C   0  0  0  0  0  0  0  0  0  0  0  0
    4.0907    1.1241    1.9987 C   0  0  0  0  0  0  0  0  0  0  0  0
    4.0204    1.2130    3.3755 C   0  0  0  0  0  0  0  0  0  0  0  0
    4.8048   -0.0437   -0.0964 C   0  0  0  0  0  0  0  0  0  0  0  0
    3.5939   -0.8227   -0.6137 C   0  0  2  0  0  0  0  0  0  0  0  0
    3.5460   -1.7918   -0.1169 H   0  0  0  0  0  0  0  0  0  0  0  0
    3.7257   -1.0267   -2.1010 C   0  0  0  0  0  0  0  0  0  0  0  0
    2.8842   -0.5868   -2.8480 O   0  0  0  0  0  0  0  0  0  0  0  0
    2.3705   -0.0681   -0.3308 N   0  0  0  0  0  0  0  0  0  0  0  0
    1.1571   -0.7318   -0.2130 C   0  0  0  0  0  0  0  0  0  0  0  0
    1.0782   -2.0947   -0.4725 C   0  0  0  0  0  0  0  0  0  0  0  0
   -0.1300   -2.7509   -0.3603 C   0  0  0  0  0  0  0  0  0  0  0  0
   -1.2721   -2.0608    0.0168 C   0  0  0  0  0  0  0  0  0  0  0  0
   -1.2138   -0.7112    0.2833 C   0  0  0  0  0  0  0  0  0  0  0  0
    0.0031   -0.0306    0.1743 C   0  0  0  0  0  0  0  0  0  0  0  0
    0.0731    1.4132    0.4580 C   0  0  0  0  0  0  0  0  0  0  0  0
    0.0489    1.8089    1.6076 O   0  0  0  0  0  0  0  0  0  0  0  0
    0.1787    2.3807   -0.6545 C   0  0  0  0  0  0  0  0  0  0  0  0
    0.1643    1.9329   -1.9771 C   0  0  0  0  0  0  0  0  0  0  0  0
    0.2589    2.8416   -3.0105 C   0  0  0  0  0  0  0  0  0  0  0  0
    0.3777    4.1933   -2.7388 C   0  0  0  0  0  0  0  0  0  0  0  0
    0.3979    4.6434   -1.4304 C   0  0  0  0  0  0  0  0  0  0  0  0
    0.2992    3.7461   -0.3875 C   0  0  0  0  0  0  0  0  0  0  0  0
   -0.6817    5.5192    8.7752 H   0  0  0  0  0  0  0  0  0  0  0  0
   -0.4642    7.2322    9.2072 H   0  0  0  0  0  0  0  0  0  0  0  0
    0.4057    6.5487    7.8129 H   0  0  0  0  0  0  0  0  0  0  0  0
    0.8224    5.7596   10.7319 H   0  0  0  0  0  0  0  0  0  0  0  0
    1.9098    6.7890    9.7695 H   0  0  0  0  0  0  0  0  0  0  0  0
    0.6555    3.3486   10.2805 H   0  0  0  0  0  0  0  0  0  0  0  0
    1.8279    1.3706    9.3355 H   0  0  0  0  0  0  0  0  0  0  0  0
    3.2536    5.8357    7.9796 H   0  0  0  0  0  0  0  0  0  0  0  0
    3.4013    0.4601    7.9220 H   0  0  0  0  0  0  0  0  0  0  0  0
    4.9249    1.3804    7.9336 H   0  0  0  0  0  0  0  0  0  0  0  0
    4.3460    2.3664    5.7333 H   0  0  0  0  0  0  0  0  0  0  0  0
    2.8225    1.4461    5.7217 H   0  0  0  0  0  0  0  0  0  0  0  0
    5.7144   -1.6007    4.1775 H   0  0  0  0  0  0  0  0  0  0  0  0
    5.8263   -1.7566    1.7235 H   0  0  0  0  0  0  0  0  0  0  0  0
    3.6385    1.8891    1.3848 H   0  0  0  0  0  0  0  0  0  0  0  0
    3.5132    2.0468    3.8380 H   0  0  0  0  0  0  0  0  0  0  0  0
    5.7199   -0.5610   -0.3847 H   0  0  0  0  0  0  0  0  0  0  0  0
    4.8029    0.9581   -0.5261 H   0  0  0  0  0  0  0  0  0  0  0  0
    2.4084    0.8955   -0.2258 H   0  0  0  0  0  0  0  0  0  0  0  0
    1.9629   -2.6398   -0.7667 H   0  0  0  0  0  0  0  0  0  0  0  0
   -0.1867   -3.8094   -0.5671 H   0  0  0  0  0  0  0  0  0  0  0  0
   -2.2127   -2.5848    0.1014 H   0  0  0  0  0  0  0  0  0  0  0  0
   -2.1066   -0.1790    0.5765 H   0  0  0  0  0  0  0  0  0  0  0  0
    0.0758    0.8779   -2.1905 H   0  0  0  0  0  0  0  0  0  0  0  0
    0.2441    2.4971   -4.0340 H   0  0  0  0  0  0  0  0  0  0  0  0
    0.4552    4.9002   -3.5517 H   0  0  0  0  0  0  0  0  0  0  0  0
    0.4908    5.6997   -1.2254 H   0  0  0  0  0  0  0  0  0  0  0  0
    0.3155    4.0986    0.6332 H   0  0  0  0  0  0  0  0  0  0  0  0
    4.7781   -1.6971   -2.5958 O   0  5  0  0  0  0  0  0  0  0  0  0
  1  2  1  0  0  0  0
  1 38  1  0  0  0  0
  1 39  1  0  0  0  0
  1 40  1  0  0  0  0
  2  3  1  0  0  0  0
  2 41  1  0  0  0  0
  2 42  1  0  0  0  0
  3  8  2  0  0  0  0
  3  4  1  0  0  0  0
  4  5  2  0  0  0  0
  4 43  1  0  0  0  0
  5  6  1  0  0  0  0
  5 44  1  0  0  0  0
  6  7  2  0  0  0  0
  6  9  1  0  0  0  0
  7  8  1  0  0  0  0
  8 45  1  0  0  0  0
  9 10  1  0  0  0  0
  9 46  1  0  0  0  0
  9 47  1  0  0  0  0
 10 11  1  0  0  0  0
 10 48  1  0  0  0  0
 10 49  1  0  0  0  0
 11 12  1  0  0  0  0
 12 17  2  0  0  0  0
 12 13  1  0  0  0  0
 13 14  2  0  0  0  0
 13 50  1  0  0  0  0
 14 15  1  0  0  0  0
 14 51  1  0  0  0  0
 15 16  2  0  0  0  0
 15 18  1  0  0  0  0
 16 17  1  0  0  0  0
 16 52  1  0  0  0  0
 17 53  1  0  0  0  0
 18 19  1  0  0  0  0
 18 54  1  0  0  0  0
 18 55  1  0  0  0  0
 19 20  1  0  0  0  0
 19 21  1  0  0  0  0
 19 23  1  0  0  0  0
 21 22  2  0  0  0  0
 21 66  1  0  0  0  0
 23 24  1  0  0  0  0
 23 56  1  0  0  0  0
 24 29  2  0  0  0  0
 24 25  1  0  0  0  0
 25 26  2  0  0  0  0
 25 57  1  0  0  0  0
 26 27  1  0  0  0  0
 26 58  1  0  0  0  0
 27 28  2  0  0  0  0
 27 59  1  0  0  0  0
 28 29  1  0  0  0  0
 28 60  1  0  0  0  0
 29 30  1  0  0  0  0
 30 31  2  0  0  0  0
 30 32  1  0  0  0  0
 32 37  2  0  0  0  0
 32 33  1  0  0  0  0
 33 34  2  0  0  0  0
 33 61  1  0  0  0  0
 34 35  1  0  0  0  0
 34 62  1  0  0  0  0
 35 36  2  0  0  0  0
 35 63  1  0  0  0  0
 36 37  1  0  0  0  0
 36 64  1  0  0  0  0
 37 65  1  0  0  0  0
M  CHG  1  66  -1
M  END
$$$$
ZINC03832299
  -OEChem-08230709403D

 71 75  0     1  0  0  0  0  0999 V2000
   -2.5757    5.4836   -0.2138 C   0  0  0  0  0  0  0  0  0  0  0  0
   -2.5418    3.9812   -0.1013 C   0  0  0  0  0  0  0  0  0  0  0  0
   -3.7280    3.2707    0.0038 C   0  0  0  0  0  0  0  0  0  0  0  0
   -3.7122    1.8951    0.1070 C   0  0  0  0  0  0  0  0  0  0  0  0
   -2.5032    1.2103    0.1004 C   0  0  0  0  0  0  0  0  0  0  0  0
   -1.2993    1.9273   -0.0000 C   0  0  0  0  0  0  0  0  0  0  0  0
   -1.3332    3.3215   -0.1039 C   0  0  0  0  0  0  0  0  0  0  0  0
   -0.0100    1.2148   -0.0021 C   0  0  0  0  0  0  0  0  0  0  0  0
    0.6035    1.0707   -1.0421 O   0  0  0  0  0  0  0  0  0  0  0  0
    0.5411    0.6804    1.2611 C   0  0  0  0  0  0  0  0  0  0  0  0
   -0.0988    0.9463    2.4735 C   0  0  0  0  0  0  0  0  0  0  0  0
    0.4177    0.4396    3.6479 C   0  0  0  0  0  0  0  0  0  0  0  0
    1.5735   -0.3211    3.6277 C   0  0  0  0  0  0  0  0  0  0  0  0
    2.2158   -0.5837    2.4305 C   0  0  0  0  0  0  0  0  0  0  0  0
    1.7071   -0.0880    1.2481 C   0  0  0  0  0  0  0  0  0  0  0  0
   -2.4848   -0.1743    0.1979 N   0  0  0  0  0  0  0  0  0  0  0  0
   -3.7422   -0.9261    0.1867 C   0  0  1  0  0  0  0  0  0  0  0  0
   -4.4543   -0.4334   -0.4753 H   0  0  0  0  0  0  0  0  0  0  0  0
   -3.4814   -2.3486   -0.3128 C   0  0  0  0  0  0  0  0  0  0  0  0
   -3.0322   -2.3016   -1.7505 C   0  0  0  0  0  0  0  0  0  0  0  0
   -3.9661   -2.3688   -2.7679 C   0  0  0  0  0  0  0  0  0  0  0  0
   -3.5573   -2.3202   -4.0866 C   0  0  0  0  0  0  0  0  0  0  0  0
   -2.2076   -2.2150   -4.3898 C   0  0  0  0  0  0  0  0  0  0  0  0
   -1.2721   -2.1535   -3.3672 C   0  0  0  0  0  0  0  0  0  0  0  0
   -1.6864   -2.1972   -2.0501 C   0  0  0  0  0  0  0  0  0  0  0  0
   -1.8025   -2.1727   -5.6863 O   0  0  0  0  0  0  0  0  0  0  0  0
   -2.8207   -2.2406   -6.6867 C   0  0  0  0  0  0  0  0  0  0  0  0
   -2.1778   -2.1795   -8.0737 C   0  0  0  0  0  0  0  0  0  0  0  0
   -1.3503   -3.3705   -8.2813 N   0  0  0  0  0  0  0  0  0  0  0  0
    0.0628   -3.3571   -7.8951 C   0  0  0  0  0  0  0  0  0  0  0  0
   -1.9007   -4.5021   -8.8393 C   0  0  0  0  0  0  0  0  0  0  0  0
   -3.1487   -4.6227   -9.2136 N   0  0  0  0  0  0  0  0  0  0  0  0
   -3.3332   -5.8722   -9.7218 C   0  0  0  0  0  0  0  0  0  0  0  0
   -4.4334   -6.5407  -10.2602 C   0  0  0  0  0  0  0  0  0  0  0  0
   -4.2976   -7.8414  -10.6938 C   0  0  0  0  0  0  0  0  0  0  0  0
   -3.0753   -8.4885  -10.5980 C   0  0  0  0  0  0  0  0  0  0  0  0
   -1.9791   -7.8387  -10.0675 C   0  0  0  0  0  0  0  0  0  0  0  0
   -2.0982   -6.5308   -9.6267 C   0  0  0  0  0  0  0  0  0  0  0  0
   -1.2357   -5.6469   -9.0741 O   0  0  0  0  0  0  0  0  0  0  0  0
   -4.3078   -0.9797    1.5825 C   0  0  0  0  0  0  0  0  0  0  0  0
   -3.7209   -0.4447    2.4931 O   0  0  0  0  0  0  0  0  0  0  0  0
   -2.6285    5.7681   -1.2647 H   0  0  0  0  0  0  0  0  0  0  0  0
   -3.4506    5.8676    0.3110 H   0  0  0  0  0  0  0  0  0  0  0  0
   -1.6727    5.9017    0.2310 H   0  0  0  0  0  0  0  0  0  0  0  0
   -4.6707    3.7978    0.0045 H   0  0  0  0  0  0  0  0  0  0  0  0
   -4.6408    1.3496    0.1881 H   0  0  0  0  0  0  0  0  0  0  0  0
   -0.4126    3.8801   -0.1863 H   0  0  0  0  0  0  0  0  0  0  0  0
   -0.9982    1.5439    2.4911 H   0  0  0  0  0  0  0  0  0  0  0  0
   -0.0784    0.6411    4.5858 H   0  0  0  0  0  0  0  0  0  0  0  0
    1.9763   -0.7113    4.5507 H   0  0  0  0  0  0  0  0  0  0  0  0
    3.1173   -1.1784    2.4218 H   0  0  0  0  0  0  0  0  0  0  0  0
    2.2095   -0.2934    0.3144 H   0  0  0  0  0  0  0  0  0  0  0  0
   -1.6395   -0.6440    0.2734 H   0  0  0  0  0  0  0  0  0  0  0  0
   -2.7041   -2.8106    0.2958 H   0  0  0  0  0  0  0  0  0  0  0  0
   -4.3978   -2.9338   -0.2374 H   0  0  0  0  0  0  0  0  0  0  0  0
   -5.0163   -2.4551   -2.5314 H   0  0  0  0  0  0  0  0  0  0  0  0
   -4.2874   -2.3686   -4.8809 H   0  0  0  0  0  0  0  0  0  0  0  0
   -0.2208   -2.0712   -3.6006 H   0  0  0  0  0  0  0  0  0  0  0  0
   -0.9585   -2.1493   -1.2536 H   0  0  0  0  0  0  0  0  0  0  0  0
   -3.3709   -3.1757   -6.5821 H   0  0  0  0  0  0  0  0  0  0  0  0
   -3.5051   -1.4009   -6.5661 H   0  0  0  0  0  0  0  0  0  0  0  0
   -2.9576   -2.1418   -8.8343 H   0  0  0  0  0  0  0  0  0  0  0  0
   -1.5555   -1.2875   -8.1468 H   0  0  0  0  0  0  0  0  0  0  0  0
    0.1604   -3.6927   -6.8627 H   0  0  0  0  0  0  0  0  0  0  0  0
    0.6244   -4.0245   -8.5488 H   0  0  0  0  0  0  0  0  0  0  0  0
    0.4548   -2.3442   -7.9865 H   0  0  0  0  0  0  0  0  0  0  0  0
   -5.3875   -6.0404  -10.3371 H   0  0  0  0  0  0  0  0  0  0  0  0
   -5.1483   -8.3597  -11.1110 H   0  0  0  0  0  0  0  0  0  0  0  0
   -2.9802   -9.5083  -10.9406 H   0  0  0  0  0  0  0  0  0  0  0  0
   -1.0301   -8.3493   -9.9957 H   0  0  0  0  0  0  0  0  0  0  0  0
   -5.4637   -1.6217    1.8141 O   0  5  0  0  0  0  0  0  0  0  0  0
  1  2  1  0  0  0  0
  1 42  1  0  0  0  0
  1 43  1  0  0  0  0
  1 44  1  0  0  0  0
  2  7  2  0  0  0  0
  2  3  1  0  0  0  0
  3  4  2  0  0  0  0
  3 45  1  0  0  0  0
  4  5  1  0  0  0  0
  4 46  1  0  0  0  0
  5  6  2  0  0  0  0
  5 16  1  0  0  0  0
  6  7  1  0  0  0  0
  6  8  1  0  0  0  0
  7 47  1  0  0  0  0
  8  9  2  0  0  0  0
  8 10  1  0  0  0  0
 10 15  2  0  0  0  0
 10 11  1  0  0  0  0
 11 12  2  0  0  0  0
 11 48  1  0  0  0  0
 12 13  1  0  0  0  0
 12 49  1  0  0  0  0
 13 14  2  0  0  0  0
 13 50  1  0  0  0  0
 14 15  1  0  0  0  0
 14 51  1  0  0  0  0
 15 52  1  0  0  0  0
 16 17  1  0  0  0  0
 16 53  1  0  0  0  0
 17 18  1  0  0  0  0
 17 19  1  0  0  0  0
 17 40  1  0  0  0  0
 19 20  1  0  0  0  0
 19 54  1  0  0  0  0
 19 55  1  0  0  0  0
 20 25  2  0  0  0  0
 20 21  1  0  0  0  0
 21 22  2  0  0  0  0
 21 56  1  0  0  0  0
 22 23  1  0  0  0  0
 22 57  1  0  0  0  0
 23 24  2  0  0  0  0
 23 26  1  0  0  0  0
 24 25  1  0  0  0  0
 24 58  1  0  0  0  0
 25 59  1  0  0  0  0
 26 27  1  0  0  0  0
 27 28  1  0  0  0  0
 27 60  1  0  0  0  0
 27 61  1  0  0  0  0
 28 29  1  0  0  0  0
 28 62  1  0  0  0  0
 28 63  1  0  0  0  0
 29 30  1  0  0  0  0
 29 31  1  0  0  0  0
 30 64  1  0  0  0  0
 30 65  1  0  0  0  0
 30 66  1  0  0  0  0
 31 39  1  0  0  0  0
 31 32  2  0  0  0  0
 32 33  1  0  0  0  0
 33 38  2  0  0  0  0
 33 34  1  0  0  0  0
 34 35  2  0  0  0  0
 34 67  1  0  0  0  0
 35 36  1  0  0  0  0
 35 68  1  0  0  0  0
 36 37  2  0  0  0  0
 36 69  1  0  0  0  0
 37 38  1  0  0  0  0
 37 70  1  0  0  0  0
 38 39  1  0  0  0  0
 40 41  2  0  0  0  0
 40 71  1  0  0  0  0
M  CHG  1  71  -1
M  END
$$$$
ZINC03832300
  -OEChem-08230709403D

 65 68  0     1  0  0  0  0  0999 V2000
    8.0890   -0.2163    2.5438 C   0  0  0  0  0  0  0  0  0  0  0  0
    8.7072    0.9262    1.7800 C   0  0  0  0  0  0  0  0  0  0  0  0
    9.1354    0.8942    0.5049 C   0  0  0  0  0  0  0  0  0  0  0  0
    9.6232    2.1074    0.2046 N   0  0  0  0  0  0  0  0  0  0  0  0
    9.4969    2.8823    1.2560 C   0  0  0  0  0  0  0  0  0  0  0  0
    8.9342    2.1698    2.2473 O   0  0  0  0  0  0  0  0  0  0  0  0
    9.9099    4.2994    1.3384 C   0  0  0  0  0  0  0  0  0  0  0  0
   10.4903    4.9256    0.2344 C   0  0  0  0  0  0  0  0  0  0  0  0
   10.8681    6.2500    0.3161 C   0  0  0  0  0  0  0  0  0  0  0  0
   10.6832    6.9539    1.4928 C   0  0  0  0  0  0  0  0  0  0  0  0
   10.1137    6.3374    2.5926 C   0  0  0  0  0  0  0  0  0  0  0  0
    9.7262    5.0152    2.5224 C   0  0  0  0  0  0  0  0  0  0  0  0
    9.0825   -0.2947   -0.4196 C   0  0  0  0  0  0  0  0  0  0  0  0
    7.7560   -0.2892   -1.1821 C   0  0  0  0  0  0  0  0  0  0  0  0
    7.7058   -1.4167   -2.0587 O   0  0  0  0  0  0  0  0  0  0  0  0
    6.5858   -1.5611   -2.8146 C   0  0  0  0  0  0  0  0  0  0  0  0
    6.4700   -2.6332   -3.6875 C   0  0  0  0  0  0  0  0  0  0  0  0
    5.3302   -2.7780   -4.4545 C   0  0  0  0  0  0  0  0  0  0  0  0
    4.3053   -1.8555   -4.3528 C   0  0  0  0  0  0  0  0  0  0  0  0
    4.4206   -0.7831   -3.4878 C   0  0  0  0  0  0  0  0  0  0  0  0
    5.5560   -0.6369   -2.7144 C   0  0  0  0  0  0  0  0  0  0  0  0
    3.0630   -2.0159   -5.1907 C   0  0  0  0  0  0  0  0  0  0  0  0
    2.0381   -2.8572   -4.4274 C   0  0  2  0  0  0  0  0  0  0  0  0
    2.4909   -3.8048   -4.1356 H   0  0  0  0  0  0  0  0  0  0  0  0
    0.8464   -3.1210   -5.3113 C   0  0  0  0  0  0  0  0  0  0  0  0
   -0.2507   -2.7427   -4.9751 O   0  0  0  0  0  0  0  0  0  0  0  0
    1.6067   -2.1328   -3.2294 N   0  0  0  0  0  0  0  0  0  0  0  0
    1.1167   -2.8318   -2.1340 C   0  0  0  0  0  0  0  0  0  0  0  0
    1.1379   -4.2212   -2.1257 C   0  0  0  0  0  0  0  0  0  0  0  0
    0.6501   -4.9133   -1.0366 C   0  0  0  0  0  0  0  0  0  0  0  0
    0.1366   -4.2317    0.0557 C   0  0  0  0  0  0  0  0  0  0  0  0
    0.1120   -2.8545    0.0680 C   0  0  0  0  0  0  0  0  0  0  0  0
    0.5970   -2.1388   -1.0298 C   0  0  0  0  0  0  0  0  0  0  0  0
    0.5684   -0.6647   -1.0256 C   0  0  0  0  0  0  0  0  0  0  0  0
    1.0868   -0.0440   -1.9337 O   0  0  0  0  0  0  0  0  0  0  0  0
   -0.0322   -0.0053   -0.0152 N   0  0  0  0  0  0  0  0  0  0  0  0
   -0.0605    1.4595   -0.0111 C   0  0  0  0  0  0  0  0  0  0  0  0
    8.8723   -0.7820    3.0484 H   0  0  0  0  0  0  0  0  0  0  0  0
    7.3908    0.1764    3.2831 H   0  0  0  0  0  0  0  0  0  0  0  0
    7.5568   -0.8698    1.8526 H   0  0  0  0  0  0  0  0  0  0  0  0
   10.6393    4.3760   -0.6833 H   0  0  0  0  0  0  0  0  0  0  0  0
   11.3133    6.7370   -0.5389 H   0  0  0  0  0  0  0  0  0  0  0  0
   10.9846    7.9893    1.5528 H   0  0  0  0  0  0  0  0  0  0  0  0
    9.9718    6.8926    3.5081 H   0  0  0  0  0  0  0  0  0  0  0  0
    9.2813    4.5352    3.3815 H   0  0  0  0  0  0  0  0  0  0  0  0
    9.1625   -1.2122    0.1635 H   0  0  0  0  0  0  0  0  0  0  0  0
    9.9091   -0.2412   -1.1280 H   0  0  0  0  0  0  0  0  0  0  0  0
    7.6760    0.6282   -1.7652 H   0  0  0  0  0  0  0  0  0  0  0  0
    6.9294   -0.3428   -0.4736 H   0  0  0  0  0  0  0  0  0  0  0  0
    7.2702   -3.3542   -3.7670 H   0  0  0  0  0  0  0  0  0  0  0  0
    5.2395   -3.6126   -5.1339 H   0  0  0  0  0  0  0  0  0  0  0  0
    3.6207   -0.0612   -3.4136 H   0  0  0  0  0  0  0  0  0  0  0  0
    5.6437    0.1985   -2.0356 H   0  0  0  0  0  0  0  0  0  0  0  0
    3.3176   -2.5140   -6.1262 H   0  0  0  0  0  0  0  0  0  0  0  0
    2.6401   -1.0344   -5.4050 H   0  0  0  0  0  0  0  0  0  0  0  0
    1.6633   -1.1649   -3.2012 H   0  0  0  0  0  0  0  0  0  0  0  0
    1.5363   -4.7598   -2.9728 H   0  0  0  0  0  0  0  0  0  0  0  0
    0.6687   -5.9932   -1.0348 H   0  0  0  0  0  0  0  0  0  0  0  0
   -0.2421   -4.7833    0.9035 H   0  0  0  0  0  0  0  0  0  0  0  0
   -0.2854   -2.3285    0.9234 H   0  0  0  0  0  0  0  0  0  0  0  0
   -0.4456   -0.5004    0.7092 H   0  0  0  0  0  0  0  0  0  0  0  0
    0.9599    1.8426   -0.0058 H   0  0  0  0  0  0  0  0  0  0  0  0
   -0.5777    1.8154   -0.9021 H   0  0  0  0  0  0  0  0  0  0  0  0
   -0.5849    1.8102    0.8779 H   0  0  0  0  0  0  0  0  0  0  0  0
    1.0038   -3.7762   -6.4722 O   0  5  0  0  0  0  0  0  0  0  0  0
  1  2  1  0  0  0  0
  1 38  1  0  0  0  0
  1 39  1  0  0  0  0
  1 40  1  0  0  0  0
  2  6  1  0  0  0  0
  2  3  2  0  0  0  0
  3  4  1  0  0  0  0
  3 13  1  0  0  0  0
  4  5  2  0  0  0  0
  5  6  1  0  0  0  0
  5  7  1  0  0  0  0
  7 12  2  0  0  0  0
  7  8  1  0  0  0  0
  8  9  2  0  0  0  0
  8 41  1  0  0  0  0
  9 10  1  0  0  0  0
  9 42  1  0  0  0  0
 10 11  2  0  0  0  0
 10 43  1  0  0  0  0
 11 12  1  0  0  0  0
 11 44  1  0  0  0  0
 12 45  1  0  0  0  0
 13 14  1  0  0  0  0
 13 46  1  0  0  0  0
 13 47  1  0  0  0  0
 14 15  1  0  0  0  0
 14 48  1  0  0  0  0
 14 49  1  0  0  0  0
 15 16  1  0  0  0  0
 16 21  2  0  0  0  0
 16 17  1  0  0  0  0
 17 18  2  0  0  0  0
 17 50  1  0  0  0  0
 18 19  1  0  0  0  0
 18 51  1  0  0  0  0
 19 20  2  0  0  0  0
 19 22  1  0  0  0  0
 20 21  1  0  0  0  0
 20 52  1  0  0  0  0
 21 53  1  0  0  0  0
 22 23  1  0  0  0  0
 22 54  1  0  0  0  0
 22 55  1  0  0  0  0
 23 24  1  0  0  0  0
 23 25  1  0  0  0  0
 23 27  1  0  0  0  0
 25 26  2  0  0  0  0
 25 65  1  0  0  0  0
 27 28  1  0  0  0  0
 27 56  1  0  0  0  0
 28 33  2  0  0  0  0
 28 29  1  0  0  0  0
 29 30  2  0  0  0  0
 29 57  1  0  0  0  0
 30 31  1  0  0  0  0
 30 58  1  0  0  0  0
 31 32  2  0  0  0  0
 31 59  1  0  0  0  0
 32 33  1  0  0  0  0
 32 60  1  0  0  0  0
 33 34  1  0  0  0  0
 34 35  2  0  0  0  0
 34 36  1  0  0  0  0
 36 37  1  0  0  0  0
 36 61  1  0  0  0  0
 37 62  1  0  0  0  0
 37 63  1  0  0  0  0
 37 64  1  0  0  0  0
M  CHG  1  65  -1
M  END
$$$$
ZINC03832301
  -OEChem-08230709403D

 68 71  0     1  0  0  0  0  0999 V2000
   -0.6321   -1.0599    0.0182 C   0  0  0  0  0  0  0  0  0  0  0  0
    0.5156   -0.0860   -0.0552 C   0  0  0  0  0  0  0  0  0  0  0  0
    1.8446   -0.3234   -0.1628 C   0  0  0  0  0  0  0  0  0  0  0  0
    2.6664    0.7083   -0.2106 N   0  0  0  0  0  0  0  0  0  0  0  0
    2.2123    1.9458   -0.1553 C   0  0  0  0  0  0  0  0  0  0  0  0
    0.4981    1.7005   -0.0253 S   0  0  0  0  0  0  0  0  0  0  0  0
    2.9215    3.1362   -0.1913 N   0  0  0  0  0  0  0  0  0  0  0  0
    4.3818    3.1157   -0.3064 C   0  0  0  0  0  0  0  0  0  0  0  0
    2.2107    4.4149   -0.1143 C   0  0  0  0  0  0  0  0  0  0  0  0
    2.3730   -1.7333   -0.2262 C   0  0  0  0  0  0  0  0  0  0  0  0
    2.4394   -2.1880   -1.6856 C   0  0  0  0  0  0  0  0  0  0  0  0
    2.9404   -3.5249   -1.7456 O   0  0  0  0  0  0  0  0  0  0  0  0
    3.0624   -4.0833   -2.9786 C   0  0  0  0  0  0  0  0  0  0  0  0
    2.7017   -3.3613   -4.1070 C   0  0  0  0  0  0  0  0  0  0  0  0
    2.8316   -3.9293   -5.3596 C   0  0  0  0  0  0  0  0  0  0  0  0
    3.3106   -5.2199   -5.4885 C   0  0  0  0  0  0  0  0  0  0  0  0
    3.6654   -5.9435   -4.3650 C   0  0  0  0  0  0  0  0  0  0  0  0
    3.5423   -5.3782   -3.1105 C   0  0  0  0  0  0  0  0  0  0  0  0
    3.4459   -5.8391   -6.8558 C   0  0  0  0  0  0  0  0  0  0  0  0
    2.1454   -6.5575   -7.2212 C   0  0  2  0  0  0  0  0  0  0  0  0
    1.8962   -7.2768   -6.4411 H   0  0  0  0  0  0  0  0  0  0  0  0
    2.3216   -7.2793   -8.5323 C   0  0  0  0  0  0  0  0  0  0  0  0
    1.6162   -7.0031   -9.4735 O   0  0  0  0  0  0  0  0  0  0  0  0
    1.0640   -5.5770   -7.3450 N   0  0  0  0  0  0  0  0  0  0  0  0
   -0.2537   -5.9692   -7.1538 C   0  0  0  0  0  0  0  0  0  0  0  0
   -0.5622   -7.3098   -6.9580 C   0  0  0  0  0  0  0  0  0  0  0  0
   -1.8720   -7.6964   -6.7624 C   0  0  0  0  0  0  0  0  0  0  0  0
   -2.8909   -6.7559   -6.7707 C   0  0  0  0  0  0  0  0  0  0  0  0
   -2.6065   -5.4233   -6.9687 C   0  0  0  0  0  0  0  0  0  0  0  0
   -1.2835   -5.0137   -7.1628 C   0  0  0  0  0  0  0  0  0  0  0  0
   -0.9718   -3.5897   -7.3757 C   0  0  0  0  0  0  0  0  0  0  0  0
   -0.9872   -2.8170   -6.4369 O   0  0  0  0  0  0  0  0  0  0  0  0
   -0.6403   -3.1003   -8.7304 C   0  0  0  0  0  0  0  0  0  0  0  0
   -0.7267   -3.9601   -9.8274 C   0  0  0  0  0  0  0  0  0  0  0  0
   -0.4214   -3.4951  -11.0897 C   0  0  0  0  0  0  0  0  0  0  0  0
   -0.0193   -2.1832  -11.2687 C   0  0  0  0  0  0  0  0  0  0  0  0
    0.0739   -1.3274  -10.1853 C   0  0  0  0  0  0  0  0  0  0  0  0
   -0.2339   -1.7776   -8.9183 C   0  0  0  0  0  0  0  0  0  0  0  0
   -1.5700   -0.5106    0.1002 H   0  0  0  0  0  0  0  0  0  0  0  0
   -0.6472   -1.6722   -0.8834 H   0  0  0  0  0  0  0  0  0  0  0  0
   -0.5092   -1.7012    0.8910 H   0  0  0  0  0  0  0  0  0  0  0  0
    4.6635    3.1276   -1.3593 H   0  0  0  0  0  0  0  0  0  0  0  0
    4.7978    3.9919    0.1909 H   0  0  0  0  0  0  0  0  0  0  0  0
    4.7706    2.2123    0.1636 H   0  0  0  0  0  0  0  0  0  0  0  0
    2.1149    4.7151    0.9292 H   0  0  0  0  0  0  0  0  0  0  0  0
    2.7693    5.1746   -0.6610 H   0  0  0  0  0  0  0  0  0  0  0  0
    1.2191    4.3065   -0.5536 H   0  0  0  0  0  0  0  0  0  0  0  0
    3.3710   -1.7672    0.2107 H   0  0  0  0  0  0  0  0  0  0  0  0
    1.7099   -2.3952    0.3308 H   0  0  0  0  0  0  0  0  0  0  0  0
    1.4413   -2.1540   -2.1224 H   0  0  0  0  0  0  0  0  0  0  0  0
    3.1025   -1.5261   -2.2425 H   0  0  0  0  0  0  0  0  0  0  0  0
    2.3235   -2.3547   -4.0066 H   0  0  0  0  0  0  0  0  0  0  0  0
    2.5551   -3.3661   -6.2387 H   0  0  0  0  0  0  0  0  0  0  0  0
    4.0393   -6.9514   -4.4683 H   0  0  0  0  0  0  0  0  0  0  0  0
    3.8199   -5.9437   -2.2333 H   0  0  0  0  0  0  0  0  0  0  0  0
    3.6485   -5.0589   -7.5895 H   0  0  0  0  0  0  0  0  0  0  0  0
    4.2676   -6.5552   -6.8506 H   0  0  0  0  0  0  0  0  0  0  0  0
    1.2688   -4.6537   -7.5606 H   0  0  0  0  0  0  0  0  0  0  0  0
    0.2248   -8.0495   -6.9545 H   0  0  0  0  0  0  0  0  0  0  0  0
   -2.1058   -8.7391   -6.6059 H   0  0  0  0  0  0  0  0  0  0  0  0
   -3.9132   -7.0704   -6.6214 H   0  0  0  0  0  0  0  0  0  0  0  0
   -3.4042   -4.6952   -6.9738 H   0  0  0  0  0  0  0  0  0  0  0  0
   -1.0356   -4.9855   -9.6884 H   0  0  0  0  0  0  0  0  0  0  0  0
   -0.4917   -4.1579  -11.9395 H   0  0  0  0  0  0  0  0  0  0  0  0
    0.2232   -1.8257  -12.2586 H   0  0  0  0  0  0  0  0  0  0  0  0
    0.3880   -0.3046  -10.3321 H   0  0  0  0  0  0  0  0  0  0  0  0
   -0.1604   -1.1087   -8.0736 H   0  0  0  0  0  0  0  0  0  0  0  0
    3.2622   -8.2291   -8.6544 O   0  5  0  0  0  0  0  0  0  0  0  0
  1  2  1  0  0  0  0
  1 39  1  0  0  0  0
  1 40  1  0  0  0  0
  1 41  1  0  0  0  0
  2  6  1  0  0  0  0
  2  3  2  0  0  0  0
  3  4  1  0  0  0  0
  3 10  1  0  0  0  0
  4  5  2  0  0  0  0
  5  6  1  0  0  0  0
  5  7  1  0  0  0  0
  7  8  1  0  0  0  0
  7  9  1  0  0  0  0
  8 42  1  0  0  0  0
  8 43  1  0  0  0  0
  8 44  1  0  0  0  0
  9 45  1  0  0  0  0
  9 46  1  0  0  0  0
  9 47  1  0  0  0  0
 10 11  1  0  0  0  0
 10 48  1  0  0  0  0
 10 49  1  0  0  0  0
 11 12  1  0  0  0  0
 11 50  1  0  0  0  0
 11 51  1  0  0  0  0
 12 13  1  0  0  0  0
 13 18  2  0  0  0  0
 13 14  1  0  0  0  0
 14 15  2  0  0  0  0
 14 52  1  0  0  0  0
 15 16  1  0  0  0  0
 15 53  1  0  0  0  0
 16 17  2  0  0  0  0
 16 19  1  0  0  0  0
 17 18  1  0  0  0  0
 17 54  1  0  0  0  0
 18 55  1  0  0  0  0
 19 20  1  0  0  0  0
 19 56  1  0  0  0  0
 19 57  1  0  0  0  0
 20 21  1  0  0  0  0
 20 22  1  0  0  0  0
 20 24  1  0  0  0  0
 22 23  2  0  0  0  0
 22 68  1  0  0  0  0
 24 25  1  0  0  0  0
 24 58  1  0  0  0  0
 25 30  2  0  0  0  0
 25 26  1  0  0  0  0
 26 27  2  0  0  0  0
 26 59  1  0  0  0  0
 27 28  1  0  0  0  0
 27 60  1  0  0  0  0
 28 29  2  0  0  0  0
 28 61  1  0  0  0  0
 29 30  1  0  0  0  0
 29 62  1  0  0  0  0
 30 31  1  0  0  0  0
 31 32  2  0  0  0  0
 31 33  1  0  0  0  0
 33 38  2  0  0  0  0
 33 34  1  0  0  0  0
 34 35  2  0  0  0  0
 34 63  1  0  0  0  0
 35 36  1  0  0  0  0
 35 64  1  0  0  0  0
 36 37  2  0  0  0  0
 36 65  1  0  0  0  0
 37 38  1  0  0  0  0
 37 66  1  0  0  0  0
 38 67  1  0  0  0  0
M  CHG  1  68  -1
M  END
$$$$
ZINC03832302
  -OEChem-08230709403D

 77 81  0     1  0  0  0  0  0999 V2000
    3.5731   -3.4442   -8.4579 C   0  0  0  0  0  0  0  0  0  0  0  0
    2.1344   -3.3185   -8.2120 N   0  0  0  0  0  0  0  0  0  0  0  0
    1.5853   -2.0583   -7.7053 C   0  0  0  0  0  0  0  0  0  0  0  0
    1.5852   -2.0807   -6.1754 C   0  0  0  0  0  0  0  0  0  0  0  0
    2.9319   -2.1247   -5.6996 O   0  0  0  0  0  0  0  0  0  0  0  0
    3.1097   -2.1493   -4.3525 C   0  0  0  0  0  0  0  0  0  0  0  0
    4.3907   -2.1923   -3.8214 C   0  0  0  0  0  0  0  0  0  0  0  0
    4.5688   -2.2177   -2.4518 C   0  0  0  0  0  0  0  0  0  0  0  0
    3.4718   -2.1998   -1.6103 C   0  0  0  0  0  0  0  0  0  0  0  0
    2.1940   -2.1627   -2.1372 C   0  0  0  0  0  0  0  0  0  0  0  0
    2.0107   -2.1319   -3.5061 C   0  0  0  0  0  0  0  0  0  0  0  0
    3.6691   -2.2271   -0.1165 C   0  0  0  0  0  0  0  0  0  0  0  0
    3.7755   -0.7945    0.4101 C   0  0  2  0  0  0  0  0  0  0  0  0
    4.5677   -0.2692   -0.1234 H   0  0  0  0  0  0  0  0  0  0  0  0
    4.0948   -0.8230    1.8826 C   0  0  0  0  0  0  0  0  0  0  0  0
    3.3366   -0.3161    2.6751 O   0  0  0  0  0  0  0  0  0  0  0  0
    2.5022   -0.1011    0.1998 N   0  0  0  0  0  0  0  0  0  0  0  0
    2.4744    1.2818    0.0971 C   0  0  0  0  0  0  0  0  0  0  0  0
    3.6606    2.0053    0.0781 C   0  0  0  0  0  0  0  0  0  0  0  0
    3.6302    3.3809   -0.0190 C   0  0  0  0  0  0  0  0  0  0  0  0
    2.4203    4.0538   -0.1036 C   0  0  0  0  0  0  0  0  0  0  0  0
    1.2336    3.3570   -0.0913 C   0  0  0  0  0  0  0  0  0  0  0  0
    1.2454    1.9599    0.0066 C   0  0  0  0  0  0  0  0  0  0  0  0
   -0.0148    1.2098    0.0208 C   0  0  0  0  0  0  0  0  0  0  0  0
    0.0010   -0.0031    0.0019 O   0  0  0  0  0  0  0  0  0  0  0  0
   -1.3294    1.9459    0.0526 C   0  0  0  0  0  0  0  0  0  0  0  0
   -1.6449    2.3423    1.5095 C   0  0  0  0  0  0  0  0  0  0  0  0
   -2.6361    3.4742    1.4931 C   0  0  0  0  0  0  0  0  0  0  0  0
   -4.0920    2.9848    1.6128 C   0  0  0  0  0  0  0  0  0  0  0  0
   -4.3719    1.7294    0.7646 C   0  0  0  0  0  0  0  0  0  0  0  0
   -3.7310    1.7986   -0.5951 C   0  0  0  0  0  0  0  0  0  0  0  0
   -2.3595    1.0963   -0.5265 C   0  0  0  0  0  0  0  0  0  0  0  0
    1.2985   -4.3843   -8.4571 C   0  0  0  0  0  0  0  0  0  0  0  0
    0.0038   -4.3810   -8.2672 N   0  0  0  0  0  0  0  0  0  0  0  0
   -0.4919   -5.5994   -8.6184 C   0  0  0  0  0  0  0  0  0  0  0  0
   -1.7729   -6.1528   -8.6257 C   0  0  0  0  0  0  0  0  0  0  0  0
   -1.9530   -7.4534   -9.0429 C   0  0  0  0  0  0  0  0  0  0  0  0
   -0.8696   -8.2141   -9.4549 C   0  0  0  0  0  0  0  0  0  0  0  0
    0.4027   -7.6788   -9.4526 C   0  0  0  0  0  0  0  0  0  0  0  0
    0.6015   -6.3726   -9.0361 C   0  0  0  0  0  0  0  0  0  0  0  0
    1.6940   -5.5827   -8.9212 O   0  0  0  0  0  0  0  0  0  0  0  0
    4.0660   -3.8039   -7.5547 H   0  0  0  0  0  0  0  0  0  0  0  0
    3.7425   -4.1510   -9.2703 H   0  0  0  0  0  0  0  0  0  0  0  0
    3.9813   -2.4713   -8.7318 H   0  0  0  0  0  0  0  0  0  0  0  0
    0.5644   -1.9353   -8.0669 H   0  0  0  0  0  0  0  0  0  0  0  0
    2.1977   -1.2278   -8.0565 H   0  0  0  0  0  0  0  0  0  0  0  0
    1.0470   -2.9614   -5.8250 H   0  0  0  0  0  0  0  0  0  0  0  0
    1.0960   -1.1823   -5.7990 H   0  0  0  0  0  0  0  0  0  0  0  0
    5.2479   -2.2056   -4.4783 H   0  0  0  0  0  0  0  0  0  0  0  0
    5.5658   -2.2512   -2.0379 H   0  0  0  0  0  0  0  0  0  0  0  0
    1.3386   -2.1536   -1.4779 H   0  0  0  0  0  0  0  0  0  0  0  0
    1.0125   -2.0988   -3.9171 H   0  0  0  0  0  0  0  0  0  0  0  0
    4.5845   -2.7698    0.1192 H   0  0  0  0  0  0  0  0  0  0  0  0
    2.8205   -2.7247    0.3530 H   0  0  0  0  0  0  0  0  0  0  0  0
    1.6786   -0.6091    0.1325 H   0  0  0  0  0  0  0  0  0  0  0  0
    4.6076    1.4901    0.1435 H   0  0  0  0  0  0  0  0  0  0  0  0
    4.5553    3.9381   -0.0287 H   0  0  0  0  0  0  0  0  0  0  0  0
    2.4095    5.1311   -0.1791 H   0  0  0  0  0  0  0  0  0  0  0  0
    0.2947    3.8866   -0.1575 H   0  0  0  0  0  0  0  0  0  0  0  0
   -1.2582    2.7790   -0.4959 H   0  0  0  0  0  0  0  0  0  0  0  0
   -2.0719    1.4892    2.0367 H   0  0  0  0  0  0  0  0  0  0  0  0
   -0.7302    2.6637    2.0077 H   0  0  0  0  0  0  0  0  0  0  0  0
   -2.5253    4.0265    0.5599 H   0  0  0  0  0  0  0  0  0  0  0  0
   -2.4193    4.1430    2.3260 H   0  0  0  0  0  0  0  0  0  0  0  0
   -4.7592    3.7836    1.2891 H   0  0  0  0  0  0  0  0  0  0  0  0
   -4.3014    2.7567    2.6579 H   0  0  0  0  0  0  0  0  0  0  0  0
   -5.4494    1.6201    0.6414 H   0  0  0  0  0  0  0  0  0  0  0  0
   -3.9873    0.8564    1.2918 H   0  0  0  0  0  0  0  0  0  0  0  0
   -3.5946    2.8410   -0.8830 H   0  0  0  0  0  0  0  0  0  0  0  0
   -4.3633    1.2963   -1.3272 H   0  0  0  0  0  0  0  0  0  0  0  0
   -2.0574    0.8125   -1.5346 H   0  0  0  0  0  0  0  0  0  0  0  0
   -2.4545    0.1945    0.0784 H   0  0  0  0  0  0  0  0  0  0  0  0
   -2.6198   -5.5638   -8.3059 H   0  0  0  0  0  0  0  0  0  0  0  0
   -2.9439   -7.8828   -9.0493 H   0  0  0  0  0  0  0  0  0  0  0  0
   -1.0222   -9.2328   -9.7797 H   0  0  0  0  0  0  0  0  0  0  0  0
    1.2419   -8.2775   -9.7746 H   0  0  0  0  0  0  0  0  0  0  0  0
    5.2216   -1.4115    2.3137 O   0  5  0  0  0  0  0  0  0  0  0  0
  1  2  1  0  0  0  0
  1 42  1  0  0  0  0
  1 43  1  0  0  0  0
  1 44  1  0  0  0  0
  2  3  1  0  0  0  0
  2 33  1  0  0  0  0
  3  4  1  0  0  0  0
  3 45  1  0  0  0  0
  3 46  1  0  0  0  0
  4  5  1  0  0  0  0
  4 47  1  0  0  0  0
  4 48  1  0  0  0  0
  5  6  1  0  0  0  0
  6 11  2  0  0  0  0
  6  7  1  0  0  0  0
  7  8  2  0  0  0  0
  7 49  1  0  0  0  0
  8  9  1  0  0  0  0
  8 50  1  0  0  0  0
  9 10  2  0  0  0  0
  9 12  1  0  0  0  0
 10 11  1  0  0  0  0
 10 51  1  0  0  0  0
 11 52  1  0  0  0  0
 12 13  1  0  0  0  0
 12 53  1  0  0  0  0
 12 54  1  0  0  0  0
 13 14  1  0  0  0  0
 13 15  1  0  0  0  0
 13 17  1  0  0  0  0
 15 16  2  0  0  0  0
 15 77  1  0  0  0  0
 17 18  1  0  0  0  0
 17 55  1  0  0  0  0
 18 23  2  0  0  0  0
 18 19  1  0  0  0  0
 19 20  2  0  0  0  0
 19 56  1  0  0  0  0
 20 21  1  0  0  0  0
 20 57  1  0  0  0  0
 21 22  2  0  0  0  0
 21 58  1  0  0  0  0
 22 23  1  0  0  0  0
 22 59  1  0  0  0  0
 23 24  1  0  0  0  0
 24 25  2  0  0  0  0
 24 26  1  0  0  0  0
 26 32  1  0  0  0  0
 26 27  1  0  0  0  0
 26 60  1  0  0  0  0
 27 28  1  0  0  0  0
 27 61  1  0  0  0  0
 27 62  1  0  0  0  0
 28 29  1  0  0  0  0
 28 63  1  0  0  0  0
 28 64  1  0  0  0  0
 29 30  1  0  0  0  0
 29 65  1  0  0  0  0
 29 66  1  0  0  0  0
 30 31  1  0  0  0  0
 30 67  1  0  0  0  0
 30 68  1  0  0  0  0
 31 32  1  0  0  0  0
 31 69  1  0  0  0  0
 31 70  1  0  0  0  0
 32 71  1  0  0  0  0
 32 72  1  0  0  0  0
 33 41  1  0  0  0  0
 33 34  2  0  0  0  0
 34 35  1  0  0  0  0
 35 40  2  0  0  0  0
 35 36  1  0  0  0  0
 36 37  2  0  0  0  0
 36 73  1  0  0  0  0
 37 38  1  0  0  0  0
 37 74  1  0  0  0  0
 38 39  2  0  0  0  0
 38 75  1  0  0  0  0
 39 40  1  0  0  0  0
 39 76  1  0  0  0  0
 40 41  1  0  0  0  0
M  CHG  1  77  -1
M  END
$$$$
ZINC03832303
  -OEChem-08230709403D

 34 36  0     0  0  0  0  0  0999 V2000
    2.6398    4.4676   -0.0010 C   0  0  0  0  0  0  0  0  0  0  0  0
    3.7671    3.5321   -0.0161 N   0  0  0  0  0  0  0  0  0  0  0  0
    5.0813    3.8789   -0.2390 C   0  0  0  0  0  0  0  0  0  0  0  0
    5.7180    5.0891   -0.4952 C   0  0  0  0  0  0  0  0  0  0  0  0
    7.0830    5.1193   -0.6799 C   0  0  0  0  0  0  0  0  0  0  0  0
    7.8331    3.9529   -0.6130 C   0  0  0  0  0  0  0  0  0  0  0  0
    7.2298    2.7533   -0.3627 C   0  0  0  0  0  0  0  0  0  0  0  0
    5.8459    2.6987   -0.1721 C   0  0  0  0  0  0  0  0  0  0  0  0
    4.9051    1.6164    0.1117 C   0  0  0  0  0  0  0  0  0  0  0  0
    3.6719    2.1750    0.1895 C   0  0  0  0  0  0  0  0  0  0  0  0
    2.4178    1.4394    0.4603 C   0  0  0  0  0  0  0  0  0  0  0  0
    2.3398    0.0697    0.2048 C   0  0  0  0  0  0  0  0  0  0  0  0
    1.1671   -0.6109    0.4601 C   0  0  0  0  0  0  0  0  0  0  0  0
    0.0698    0.0618    0.9677 C   0  0  0  0  0  0  0  0  0  0  0  0
    0.1405    1.4198    1.2227 C   0  0  0  0  0  0  0  0  0  0  0  0
    1.3074    2.1119    0.9723 C   0  0  0  0  0  0  0  0  0  0  0  0
    9.3249    4.0108   -0.8188 C   0  0  0  0  0  0  0  0  0  0  0  0
    9.6374    3.8319   -2.2822 C   0  0  0  0  0  0  0  0  0  0  0  0
    8.7408    3.6736   -3.0765 O   0  0  0  0  0  0  0  0  0  0  0  0
    2.4266    4.7631    1.0262 H   0  0  0  0  0  0  0  0  0  0  0  0
    2.8925    5.3505   -0.5881 H   0  0  0  0  0  0  0  0  0  0  0  0
    1.7615    3.9851   -0.4300 H   0  0  0  0  0  0  0  0  0  0  0  0
    5.1438    6.0022   -0.5497 H   0  0  0  0  0  0  0  0  0  0  0  0
    7.5745    6.0601   -0.8790 H   0  0  0  0  0  0  0  0  0  0  0  0
    7.8199    1.8501   -0.3118 H   0  0  0  0  0  0  0  0  0  0  0  0
    5.1459    0.5707    0.2337 H   0  0  0  0  0  0  0  0  0  0  0  0
    3.1957   -0.4566   -0.1911 H   0  0  0  0  0  0  0  0  0  0  0  0
    1.1070   -1.6718    0.2674 H   0  0  0  0  0  0  0  0  0  0  0  0
   -0.8460   -0.4754    1.1654 H   0  0  0  0  0  0  0  0  0  0  0  0
   -0.7195    1.9391    1.6190 H   0  0  0  0  0  0  0  0  0  0  0  0
    1.3616    3.1718    1.1725 H   0  0  0  0  0  0  0  0  0  0  0  0
    9.7008    4.9770   -0.4825 H   0  0  0  0  0  0  0  0  0  0  0  0
    9.8019    3.2158   -0.2456 H   0  0  0  0  0  0  0  0  0  0  0  0
   10.9119    3.8483   -2.7032 O   0  5  0  0  0  0  0  0  0  0  0  0
  1  2  1  0  0  0  0
  1 20  1  0  0  0  0
  1 21  1  0  0  0  0
  1 22  1  0  0  0  0
  2 10  1  0  0  0  0
  2  3  1  0  0  0  0
  3  8  2  0  0  0  0
  3  4  1  0  0  0  0
  4  5  2  0  0  0  0
  4 23  1  0  0  0  0
  5  6  1  0  0  0  0
  5 24  1  0  0  0  0
  6  7  2  0  0  0  0
  6 17  1  0  0  0  0
  7  8  1  0  0  0  0
  7 25  1  0  0  0  0
  8  9  1  0  0  0  0
  9 10  2  0  0  0  0
  9 26  1  0  0  0  0
 10 11  1  0  0  0  0
 11 16  2  0  0  0  0
 11 12  1  0  0  0  0
 12 13  2  0  0  0  0
 12 27  1  0  0  0  0
 13 14  1  0  0  0  0
 13 28  1  0  0  0  0
 14 15  2  0  0  0  0
 14 29  1  0  0  0  0
 15 16  1  0  0  0  0
 15 30  1  0  0  0  0
 16 31  1  0  0  0  0
 17 18  1  0  0  0  0
 17 32  1  0  0  0  0
 17 33  1  0  0  0  0
 18 19  2  0  0  0  0
 18 34  1  0  0  0  0
M  CHG  1  34  -1
M  END
$$$$
ZINC03832304
  -OEChem-08230709403D

 62 65  0     1  0  0  0  0  0999 V2000
    7.0193    1.7100    2.6004 C   0  0  0  0  0  0  0  0  0  0  0  0
    6.9723    3.0392    2.9824 C   0  0  0  0  0  0  0  0  0  0  0  0
    6.4069    3.9804    2.1475 C   0  0  0  0  0  0  0  0  0  0  0  0
    5.8808    3.5892    0.9145 C   0  0  0  0  0  0  0  0  0  0  0  0
    5.9263    2.2452    0.5379 C   0  0  0  0  0  0  0  0  0  0  0  0
    6.4997    1.3154    1.3800 C   0  0  0  0  0  0  0  0  0  0  0  0
    5.2729    4.5921    0.0149 C   0  0  0  0  0  0  0  0  0  0  0  0
    5.3189    5.7730    0.3013 O   0  0  0  0  0  0  0  0  0  0  0  0
    4.6113    4.1610   -1.2288 C   0  0  0  0  0  0  0  0  0  0  0  0
    5.2464    4.3388   -2.4620 C   0  0  0  0  0  0  0  0  0  0  0  0
    4.6203    3.9380   -3.6210 C   0  0  0  0  0  0  0  0  0  0  0  0
    3.3636    3.3540   -3.5730 C   0  0  0  0  0  0  0  0  0  0  0  0
    2.7253    3.1670   -2.3643 C   0  0  0  0  0  0  0  0  0  0  0  0
    3.3404    3.5642   -1.1834 C   0  0  0  0  0  0  0  0  0  0  0  0
    2.7001    3.3775    0.0340 N   0  0  0  0  0  0  0  0  0  0  0  0
    1.3258    2.8713    0.0688 C   0  0  2  0  0  0  0  0  0  0  0  0
    0.7733    3.2610   -0.7862 H   0  0  0  0  0  0  0  0  0  0  0  0
    0.6480    3.3243    1.3635 C   0  0  0  0  0  0  0  0  0  0  0  0
    0.5200    4.8259    1.3647 C   0  0  0  0  0  0  0  0  0  0  0  0
    1.5299    5.6043    1.8992 C   0  0  0  0  0  0  0  0  0  0  0  0
    1.4174    6.9811    1.8964 C   0  0  0  0  0  0  0  0  0  0  0  0
    0.2850    7.5823    1.3664 C   0  0  0  0  0  0  0  0  0  0  0  0
   -0.7295    6.7988    0.8357 C   0  0  0  0  0  0  0  0  0  0  0  0
   -0.6099    5.4226    0.8363 C   0  0  0  0  0  0  0  0  0  0  0  0
    0.1695    8.9364    1.3674 O   0  0  0  0  0  0  0  0  0  0  0  0
    1.2527    9.6795    1.9300 C   0  0  0  0  0  0  0  0  0  0  0  0
    0.9446   11.1756    1.8427 C   0  0  0  0  0  0  0  0  0  0  0  0
   -0.1867   11.4775    2.6619 O   0  0  0  0  0  0  0  0  0  0  0  0
   -0.5950   12.7734    2.6968 C   0  0  0  0  0  0  0  0  0  0  0  0
    0.0831   13.7353    1.9623 C   0  0  0  0  0  0  0  0  0  0  0  0
   -0.3373   15.0508    1.9943 C   0  0  0  0  0  0  0  0  0  0  0  0
   -1.4263   15.4114    2.7676 C   0  0  0  0  0  0  0  0  0  0  0  0
   -2.1001   14.4547    3.5057 C   0  0  0  0  0  0  0  0  0  0  0  0
   -1.6868   13.1370    3.4715 C   0  0  0  0  0  0  0  0  0  0  0  0
   -1.9951   17.2142    2.8152 Br  0  0  0  0  0  0  0  0  0  0  0  0
    1.3435    1.3655    0.0113 C   0  0  0  0  0  0  0  0  0  0  0  0
    2.3962    0.7757   -0.0521 O   0  0  0  0  0  0  0  0  0  0  0  0
    7.4631    0.9771    3.2579 H   0  0  0  0  0  0  0  0  0  0  0  0
    7.3796    3.3404    3.9362 H   0  0  0  0  0  0  0  0  0  0  0  0
    6.3709    5.0175    2.4468 H   0  0  0  0  0  0  0  0  0  0  0  0
    5.5175    1.9353   -0.4125 H   0  0  0  0  0  0  0  0  0  0  0  0
    6.5393    0.2763    1.0883 H   0  0  0  0  0  0  0  0  0  0  0  0
    6.2253    4.7931   -2.5056 H   0  0  0  0  0  0  0  0  0  0  0  0
    5.1107    4.0795   -4.5728 H   0  0  0  0  0  0  0  0  0  0  0  0
    2.8810    3.0438   -4.4880 H   0  0  0  0  0  0  0  0  0  0  0  0
    1.7467    2.7110   -2.3360 H   0  0  0  0  0  0  0  0  0  0  0  0
    3.1626    3.5823    0.8617 H   0  0  0  0  0  0  0  0  0  0  0  0
   -0.3428    2.8751    1.4314 H   0  0  0  0  0  0  0  0  0  0  0  0
    1.2486    3.0102    2.2172 H   0  0  0  0  0  0  0  0  0  0  0  0
    2.4093    5.1356    2.3157 H   0  0  0  0  0  0  0  0  0  0  0  0
    2.2088    7.5889    2.3097 H   0  0  0  0  0  0  0  0  0  0  0  0
   -1.6122    7.2644    0.4229 H   0  0  0  0  0  0  0  0  0  0  0  0
   -1.3994    4.8122    0.4233 H   0  0  0  0  0  0  0  0  0  0  0  0
    1.3842    9.3959    2.9742 H   0  0  0  0  0  0  0  0  0  0  0  0
    2.1670    9.4639    1.3771 H   0  0  0  0  0  0  0  0  0  0  0  0
    1.8068   11.7450    2.1897 H   0  0  0  0  0  0  0  0  0  0  0  0
    0.7257   11.4417    0.8086 H   0  0  0  0  0  0  0  0  0  0  0  0
    0.9360   13.4550    1.3620 H   0  0  0  0  0  0  0  0  0  0  0  0
    0.1873   15.7991    1.4188 H   0  0  0  0  0  0  0  0  0  0  0  0
   -2.9500   14.7382    4.1087 H   0  0  0  0  0  0  0  0  0  0  0  0
   -2.2135   12.3904    4.0473 H   0  0  0  0  0  0  0  0  0  0  0  0
    0.1900    0.6795    0.0307 O   0  5  0  0  0  0  0  0  0  0  0  0
  1  6  2  0  0  0  0
  1  2  1  0  0  0  0
  1 38  1  0  0  0  0
  2  3  2  0  0  0  0
  2 39  1  0  0  0  0
  3  4  1  0  0  0  0
  3 40  1  0  0  0  0
  4  5  2  0  0  0  0
  4  7  1  0  0  0  0
  5  6  1  0  0  0  0
  5 41  1  0  0  0  0
  6 42  1  0  0  0  0
  7  8  2  0  0  0  0
  7  9  1  0  0  0  0
  9 14  2  0  0  0  0
  9 10  1  0  0  0  0
 10 11  2  0  0  0  0
 10 43  1  0  0  0  0
 11 12  1  0  0  0  0
 11 44  1  0  0  0  0
 12 13  2  0  0  0  0
 12 45  1  0  0  0  0
 13 14  1  0  0  0  0
 13 46  1  0  0  0  0
 14 15  1  0  0  0  0
 15 16  1  0  0  0  0
 15 47  1  0  0  0  0
 16 17  1  0  0  0  0
 16 18  1  0  0  0  0
 16 36  1  0  0  0  0
 18 19  1  0  0  0  0
 18 48  1  0  0  0  0
 18 49  1  0  0  0  0
 19 24  2  0  0  0  0
 19 20  1  0  0  0  0
 20 21  2  0  0  0  0
 20 50  1  0  0  0  0
 21 22  1  0  0  0  0
 21 51  1  0  0  0  0
 22 23  2  0  0  0  0
 22 25  1  0  0  0  0
 23 24  1  0  0  0  0
 23 52  1  0  0  0  0
 24 53  1  0  0  0  0
 25 26  1  0  0  0  0
 26 27  1  0  0  0  0
 26 54  1  0  0  0  0
 26 55  1  0  0  0  0
 27 28  1  0  0  0  0
 27 56  1  0  0  0  0
 27 57  1  0  0  0  0
 28 29  1  0  0  0  0
 29 34  2  0  0  0  0
 29 30  1  0  0  0  0
 30 31  2  0  0  0  0
 30 58  1  0  0  0  0
 31 32  1  0  0  0  0
 31 59  1  0  0  0  0
 32 33  2  0  0  0  0
 32 35  1  0  0  0  0
 33 34  1  0  0  0  0
 33 60  1  0  0  0  0
 34 61  1  0  0  0  0
 36 37  2  0  0  0  0
 36 62  1  0  0  0  0
M  CHG  1  62  -1
M  END
$$$$
ZINC03832305
  -OEChem-08230709403D

 66 71  0     1  0  0  0  0  0999 V2000
    0.2233   -2.7638    8.9248 C   0  0  0  0  0  0  0  0  0  0  0  0
    1.6105   -2.6065    8.4806 N   0  0  0  0  0  0  0  0  0  0  0  0
    2.0332   -1.3671    7.8237 C   0  0  0  0  0  0  0  0  0  0  0  0
    1.8334   -1.4971    6.3124 C   0  0  0  0  0  0  0  0  0  0  0  0
    0.4390   -1.6207    6.0252 O   0  0  0  0  0  0  0  0  0  0  0  0
    0.0870   -1.7462    4.7186 C   0  0  0  0  0  0  0  0  0  0  0  0
   -1.2495   -1.8703    4.3679 C   0  0  0  0  0  0  0  0  0  0  0  0
   -1.6047   -1.9982    3.0390 C   0  0  0  0  0  0  0  0  0  0  0  0
   -0.6296   -2.0020    2.0589 C   0  0  0  0  0  0  0  0  0  0  0  0
    0.7035   -1.8841    2.4062 C   0  0  0  0  0  0  0  0  0  0  0  0
    1.0636   -1.7508    3.7332 C   0  0  0  0  0  0  0  0  0  0  0  0
   -1.0199   -2.1412    0.6100 C   0  0  0  0  0  0  0  0  0  0  0  0
   -1.2565   -0.7538    0.0100 C   0  0  2  0  0  0  0  0  0  0  0  0
   -1.9938   -0.2196    0.6094 H   0  0  0  0  0  0  0  0  0  0  0  0
   -1.7650   -0.8968   -1.4014 C   0  0  0  0  0  0  0  0  0  0  0  0
   -1.1401   -0.4214   -2.3197 O   0  0  0  0  0  0  0  0  0  0  0  0
    0.0021   -0.0041    0.0020 N   0  0  0  0  0  0  0  0  0  0  0  0
   -0.0167    1.3820    0.0096 C   0  0  0  0  0  0  0  0  0  0  0  0
   -1.2332    2.0673    0.0191 C   0  0  0  0  0  0  0  0  0  0  0  0
   -1.2515    3.4438    0.0307 C   0  0  0  0  0  0  0  0  0  0  0  0
   -0.0652    4.1666    0.0237 C   0  0  0  0  0  0  0  0  0  0  0  0
    1.1537    3.5078    0.0094 C   0  0  0  0  0  0  0  0  0  0  0  0
    1.1824    2.1012    0.0021 C   0  0  0  0  0  0  0  0  0  0  0  0
    2.5962    1.6764   -0.0133 C   0  0  0  0  0  0  0  0  0  0  0  0
    3.0057    0.5324   -0.0221 O   0  0  0  0  0  0  0  0  0  0  0  0
    3.4225    2.9069   -0.0149 C   0  0  0  0  0  0  0  0  0  0  0  0
    2.5523    4.0092   -0.0011 C   0  0  0  0  0  0  0  0  0  0  0  0
    3.0766    5.2947    0.0009 C   0  0  0  0  0  0  0  0  0  0  0  0
    4.4492    5.4834   -0.0119 C   0  0  0  0  0  0  0  0  0  0  0  0
    5.3047    4.3985   -0.0250 C   0  0  0  0  0  0  0  0  0  0  0  0
    4.7976    3.1101   -0.0268 C   0  0  0  0  0  0  0  0  0  0  0  0
    2.5167   -3.6231    8.6805 C   0  0  0  0  0  0  0  0  0  0  0  0
    3.7738   -3.5889    8.3191 N   0  0  0  0  0  0  0  0  0  0  0  0
    4.3637   -4.7618    8.6794 C   0  0  0  0  0  0  0  0  0  0  0  0
    5.6573   -5.2692    8.5511 C   0  0  0  0  0  0  0  0  0  0  0  0
    5.9468   -6.5302    9.0244 C   0  0  0  0  0  0  0  0  0  0  0  0
    4.9609   -7.2967    9.6266 C   0  0  0  0  0  0  0  0  0  0  0  0
    3.6773   -6.8068    9.7598 C   0  0  0  0  0  0  0  0  0  0  0  0
    3.3691   -5.5407    9.2894 C   0  0  0  0  0  0  0  0  0  0  0  0
    2.2379   -4.7987    9.2706 O   0  0  0  0  0  0  0  0  0  0  0  0
   -0.3679   -3.2028    8.1211 H   0  0  0  0  0  0  0  0  0  0  0  0
    0.1929   -3.4170    9.7968 H   0  0  0  0  0  0  0  0  0  0  0  0
   -0.1871   -1.7886    9.1868 H   0  0  0  0  0  0  0  0  0  0  0  0
    3.0865   -1.1841    8.0365 H   0  0  0  0  0  0  0  0  0  0  0  0
    1.4369   -0.5354    8.1988 H   0  0  0  0  0  0  0  0  0  0  0  0
    2.3585   -2.3814    5.9513 H   0  0  0  0  0  0  0  0  0  0  0  0
    2.2295   -0.6113    5.8160 H   0  0  0  0  0  0  0  0  0  0  0  0
   -2.0116   -1.8666    5.1331 H   0  0  0  0  0  0  0  0  0  0  0  0
   -2.6451   -2.0949    2.7655 H   0  0  0  0  0  0  0  0  0  0  0  0
    1.4637   -1.8922    1.6391 H   0  0  0  0  0  0  0  0  0  0  0  0
    2.1047   -1.6546    4.0037 H   0  0  0  0  0  0  0  0  0  0  0  0
   -1.9340   -2.7302    0.5349 H   0  0  0  0  0  0  0  0  0  0  0  0
   -0.2197   -2.6413    0.0645 H   0  0  0  0  0  0  0  0  0  0  0  0
    0.8486   -0.4776   -0.0086 H   0  0  0  0  0  0  0  0  0  0  0  0
   -2.1620    1.5162    0.0205 H   0  0  0  0  0  0  0  0  0  0  0  0
   -2.1965    3.9664    0.0419 H   0  0  0  0  0  0  0  0  0  0  0  0
   -0.0932    5.2462    0.0298 H   0  0  0  0  0  0  0  0  0  0  0  0
    2.4144    6.1478    0.0115 H   0  0  0  0  0  0  0  0  0  0  0  0
    4.8530    6.4851   -0.0109 H   0  0  0  0  0  0  0  0  0  0  0  0
    6.3731    4.5560   -0.0342 H   0  0  0  0  0  0  0  0  0  0  0  0
    5.4693    2.2644   -0.0370 H   0  0  0  0  0  0  0  0  0  0  0  0
    6.4286   -4.6755    8.0830 H   0  0  0  0  0  0  0  0  0  0  0  0
    6.9477   -6.9239    8.9260 H   0  0  0  0  0  0  0  0  0  0  0  0
    5.1988   -8.2841    9.9938 H   0  0  0  0  0  0  0  0  0  0  0  0
    2.9144   -7.4097   10.2297 H   0  0  0  0  0  0  0  0  0  0  0  0
   -2.9120   -1.5525   -1.6383 O   0  5  0  0  0  0  0  0  0  0  0  0
  1  2  1  0  0  0  0
  1 41  1  0  0  0  0
  1 42  1  0  0  0  0
  1 43  1  0  0  0  0
  2  3  1  0  0  0  0
  2 32  1  0  0  0  0
  3  4  1  0  0  0  0
  3 44  1  0  0  0  0
  3 45  1  0  0  0  0
  4  5  1  0  0  0  0
  4 46  1  0  0  0  0
  4 47  1  0  0  0  0
  5  6  1  0  0  0  0
  6 11  2  0  0  0  0
  6  7  1  0  0  0  0
  7  8  2  0  0  0  0
  7 48  1  0  0  0  0
  8  9  1  0  0  0  0
  8 49  1  0  0  0  0
  9 10  2  0  0  0  0
  9 12  1  0  0  0  0
 10 11  1  0  0  0  0
 10 50  1  0  0  0  0
 11 51  1  0  0  0  0
 12 13  1  0  0  0  0
 12 52  1  0  0  0  0
 12 53  1  0  0  0  0
 13 14  1  0  0  0  0
 13 15  1  0  0  0  0
 13 17  1  0  0  0  0
 15 16  2  0  0  0  0
 15 66  1  0  0  0  0
 17 18  1  0  0  0  0
 17 54  1  0  0  0  0
 18 23  2  0  0  0  0
 18 19  1  0  0  0  0
 19 20  2  0  0  0  0
 19 55  1  0  0  0  0
 20 21  1  0  0  0  0
 20 56  1  0  0  0  0
 21 22  2  0  0  0  0
 21 57  1  0  0  0  0
 22 27  1  0  0  0  0
 22 23  1  0  0  0  0
 23 24  1  0  0  0  0
 24 25  2  0  0  0  0
 24 26  1  0  0  0  0
 26 31  2  0  0  0  0
 26 27  1  0  0  0  0
 27 28  2  0  0  0  0
 28 29  1  0  0  0  0
 28 58  1  0  0  0  0
 29 30  2  0  0  0  0
 29 59  1  0  0  0  0
 30 31  1  0  0  0  0
 30 60  1  0  0  0  0
 31 61  1  0  0  0  0
 32 40  1  0  0  0  0
 32 33  2  0  0  0  0
 33 34  1  0  0  0  0
 34 39  2  0  0  0  0
 34 35  1  0  0  0  0
 35 36  2  0  0  0  0
 35 62  1  0  0  0  0
 36 37  1  0  0  0  0
 36 63  1  0  0  0  0
 37 38  2  0  0  0  0
 37 64  1  0  0  0  0
 38 39  1  0  0  0  0
 38 65  1  0  0  0  0
 39 40  1  0  0  0  0
M  CHG  1  66  -1
M  END
$$$$
ZINC03832306
  -OEChem-08230709403D

 65 68  0     1  0  0  0  0  0999 V2000
    0.3270   -1.8908   -0.0879 C   0  0  0  0  0  0  0  0  0  0  0  0
    0.4074   -0.3860   -0.0810 C   0  0  0  0  0  0  0  0  0  0  0  0
   -0.7522    0.3671   -0.0879 C   0  0  0  0  0  0  0  0  0  0  0  0
   -0.6812    1.7467   -0.0811 C   0  0  0  0  0  0  0  0  0  0  0  0
    0.5548    2.3765   -0.0674 C   0  0  0  0  0  0  0  0  0  0  0  0
    1.7168    1.6186   -0.0600 C   0  0  0  0  0  0  0  0  0  0  0  0
    1.6405    0.2393   -0.0673 C   0  0  0  0  0  0  0  0  0  0  0  0
    0.6272    3.7335   -0.0603 O   0  0  0  0  0  0  0  0  0  0  0  0
    1.9332    4.3134   -0.0462 C   0  0  0  0  0  0  0  0  0  0  0  0
    1.8139    5.8388   -0.0399 C   0  0  0  0  0  0  0  0  0  0  0  0
    1.1985    6.2634    1.1779 O   0  0  0  0  0  0  0  0  0  0  0  0
    1.0170    7.6000    1.3441 C   0  0  0  0  0  0  0  0  0  0  0  0
    1.4280    8.4849    0.3579 C   0  0  0  0  0  0  0  0  0  0  0  0
    1.2367    9.8426    0.5266 C   0  0  0  0  0  0  0  0  0  0  0  0
    0.6475   10.3206    1.6824 C   0  0  0  0  0  0  0  0  0  0  0  0
    0.2422    9.4411    2.6693 C   0  0  0  0  0  0  0  0  0  0  0  0
    0.4256    8.0821    2.5028 C   0  0  0  0  0  0  0  0  0  0  0  0
    0.4462   11.8027    1.8667 C   0  0  0  0  0  0  0  0  0  0  0  0
    1.6761   12.4033    2.5504 C   0  0  2  0  0  0  0  0  0  0  0  0
    1.8697   11.8718    3.4822 H   0  0  0  0  0  0  0  0  0  0  0  0
    1.4256   13.8598    2.8456 C   0  0  0  0  0  0  0  0  0  0  0  0
    2.1433   14.7054    2.3663 O   0  0  0  0  0  0  0  0  0  0  0  0
    2.8370   12.2769    1.6659 N   0  0  0  0  0  0  0  0  0  0  0  0
    4.1176   12.2516    2.2008 C   0  0  0  0  0  0  0  0  0  0  0  0
    4.3108   12.4588    3.5611 C   0  0  0  0  0  0  0  0  0  0  0  0
    5.5845   12.4326    4.0904 C   0  0  0  0  0  0  0  0  0  0  0  0
    6.6803   12.2001    3.2731 C   0  0  0  0  0  0  0  0  0  0  0  0
    6.5100   11.9920    1.9228 C   0  0  0  0  0  0  0  0  0  0  0  0
    5.2251   12.0104    1.3708 C   0  0  0  0  0  0  0  0  0  0  0  0
    5.0348   11.7835   -0.0722 C   0  0  0  0  0  0  0  0  0  0  0  0
    5.1258   10.6598   -0.5283 O   0  0  0  0  0  0  0  0  0  0  0  0
    4.7331   12.9215   -0.9659 C   0  0  0  0  0  0  0  0  0  0  0  0
    4.7351   14.2255   -0.4660 C   0  0  0  0  0  0  0  0  0  0  0  0
    4.4574   15.2833   -1.3066 C   0  0  0  0  0  0  0  0  0  0  0  0
    4.1674   15.0538   -2.6401 C   0  0  0  0  0  0  0  0  0  0  0  0
    4.1581   13.7638   -3.1407 C   0  0  0  0  0  0  0  0  0  0  0  0
    4.4392   12.6972   -2.3125 C   0  0  0  0  0  0  0  0  0  0  0  0
    0.3165   -2.2494   -1.1171 H   0  0  0  0  0  0  0  0  0  0  0  0
    1.1919   -2.3032    0.4318 H   0  0  0  0  0  0  0  0  0  0  0  0
   -0.5854   -2.2083    0.4168 H   0  0  0  0  0  0  0  0  0  0  0  0
   -1.7142   -0.1236   -0.0989 H   0  0  0  0  0  0  0  0  0  0  0  0
   -1.5872    2.3345   -0.0910 H   0  0  0  0  0  0  0  0  0  0  0  0
    2.6802    2.1065   -0.0486 H   0  0  0  0  0  0  0  0  0  0  0  0
    2.5448   -0.3511   -0.0619 H   0  0  0  0  0  0  0  0  0  0  0  0
    2.4661    3.9870    0.8469 H   0  0  0  0  0  0  0  0  0  0  0  0
    2.4815    3.9955   -0.9330 H   0  0  0  0  0  0  0  0  0  0  0  0
    2.8069    6.2812   -0.1188 H   0  0  0  0  0  0  0  0  0  0  0  0
    1.2052    6.1591   -0.8855 H   0  0  0  0  0  0  0  0  0  0  0  0
    1.8927    8.1124   -0.5430 H   0  0  0  0  0  0  0  0  0  0  0  0
    1.5518   10.5316   -0.2431 H   0  0  0  0  0  0  0  0  0  0  0  0
   -0.2178    9.8169    3.5713 H   0  0  0  0  0  0  0  0  0  0  0  0
    0.1086    7.3954    3.2737 H   0  0  0  0  0  0  0  0  0  0  0  0
    0.3048   12.2739    0.8940 H   0  0  0  0  0  0  0  0  0  0  0  0
   -0.4343   11.9756    2.4856 H   0  0  0  0  0  0  0  0  0  0  0  0
    2.7108   12.2110    0.7064 H   0  0  0  0  0  0  0  0  0  0  0  0
    3.4629   12.6410    4.2047 H   0  0  0  0  0  0  0  0  0  0  0  0
    5.7291   12.5940    5.1484 H   0  0  0  0  0  0  0  0  0  0  0  0
    7.6730   12.1818    3.6983 H   0  0  0  0  0  0  0  0  0  0  0  0
    7.3673   11.8113    1.2912 H   0  0  0  0  0  0  0  0  0  0  0  0
    4.9575   14.4056    0.5754 H   0  0  0  0  0  0  0  0  0  0  0  0
    4.4622   16.2925   -0.9222 H   0  0  0  0  0  0  0  0  0  0  0  0
    3.9469   15.8854   -3.2930 H   0  0  0  0  0  0  0  0  0  0  0  0
    3.9306   13.5917   -4.1824 H   0  0  0  0  0  0  0  0  0  0  0  0
    4.4316   11.6908   -2.7045 H   0  0  0  0  0  0  0  0  0  0  0  0
    0.4053   14.2176    3.6410 O   0  5  0  0  0  0  0  0  0  0  0  0
  1  2  1  0  0  0  0
  1 38  1  0  0  0  0
  1 39  1  0  0  0  0
  1 40  1  0  0  0  0
  2  7  2  0  0  0  0
  2  3  1  0  0  0  0
  3  4  2  0  0  0  0
  3 41  1  0  0  0  0
  4  5  1  0  0  0  0
  4 42  1  0  0  0  0
  5  6  2  0  0  0  0
  5  8  1  0  0  0  0
  6  7  1  0  0  0  0
  6 43  1  0  0  0  0
  7 44  1  0  0  0  0
  8  9  1  0  0  0  0
  9 10  1  0  0  0  0
  9 45  1  0  0  0  0
  9 46  1  0  0  0  0
 10 11  1  0  0  0  0
 10 47  1  0  0  0  0
 10 48  1  0  0  0  0
 11 12  1  0  0  0  0
 12 17  2  0  0  0  0
 12 13  1  0  0  0  0
 13 14  2  0  0  0  0
 13 49  1  0  0  0  0
 14 15  1  0  0  0  0
 14 50  1  0  0  0  0
 15 16  2  0  0  0  0
 15 18  1  0  0  0  0
 16 17  1  0  0  0  0
 16 51  1  0  0  0  0
 17 52  1  0  0  0  0
 18 19  1  0  0  0  0
 18 53  1  0  0  0  0
 18 54  1  0  0  0  0
 19 20  1  0  0  0  0
 19 21  1  0  0  0  0
 19 23  1  0  0  0  0
 21 22  2  0  0  0  0
 21 65  1  0  0  0  0
 23 24  1  0  0  0  0
 23 55  1  0  0  0  0
 24 29  2  0  0  0  0
 24 25  1  0  0  0  0
 25 26  2  0  0  0  0
 25 56  1  0  0  0  0
 26 27  1  0  0  0  0
 26 57  1  0  0  0  0
 27 28  2  0  0  0  0
 27 58  1  0  0  0  0
 28 29  1  0  0  0  0
 28 59  1  0  0  0  0
 29 30  1  0  0  0  0
 30 31  2  0  0  0  0
 30 32  1  0  0  0  0
 32 37  2  0  0  0  0
 32 33  1  0  0  0  0
 33 34  2  0  0  0  0
 33 60  1  0  0  0  0
 34 35  1  0  0  0  0
 34 61  1  0  0  0  0
 35 36  2  0  0  0  0
 35 62  1  0  0  0  0
 36 37  1  0  0  0  0
 36 63  1  0  0  0  0
 37 64  1  0  0  0  0
M  CHG  1  65  -1
M  END
$$$$
ZINC03832307
  -OEChem-08230709403D

 61 64  0     1  0  0  0  0  0999 V2000
   -1.4315   -0.6521   11.2636 C   0  0  0  0  0  0  0  0  0  0  0  0
   -0.9668    0.0798   10.1851 C   0  0  0  0  0  0  0  0  0  0  0  0
   -0.9970   -0.4606    8.9164 C   0  0  0  0  0  0  0  0  0  0  0  0
   -1.4985   -1.7493    8.7217 C   0  0  0  0  0  0  0  0  0  0  0  0
   -1.9711   -2.4801    9.8138 C   0  0  0  0  0  0  0  0  0  0  0  0
   -1.9302   -1.9295   11.0778 C   0  0  0  0  0  0  0  0  0  0  0  0
   -1.5345   -2.3348    7.3650 C   0  0  0  0  0  0  0  0  0  0  0  0
   -1.0370   -1.7358    6.4309 O   0  0  0  0  0  0  0  0  0  0  0  0
   -2.1729   -3.6439    7.1444 C   0  0  0  0  0  0  0  0  0  0  0  0
   -1.3888   -4.7859    6.9517 C   0  0  0  0  0  0  0  0  0  0  0  0
   -1.9921   -6.0065    6.7465 C   0  0  0  0  0  0  0  0  0  0  0  0
   -3.3747   -6.1113    6.7302 C   0  0  0  0  0  0  0  0  0  0  0  0
   -4.1626   -4.9955    6.9234 C   0  0  0  0  0  0  0  0  0  0  0  0
   -3.5733   -3.7537    7.1268 C   0  0  0  0  0  0  0  0  0  0  0  0
   -4.3639   -2.6288    7.3172 N   0  0  0  0  0  0  0  0  0  0  0  0
   -5.8197   -2.7256    7.1845 C   0  0  2  0  0  0  0  0  0  0  0  0
   -6.0663   -3.4416    6.4005 H   0  0  0  0  0  0  0  0  0  0  0  0
   -6.3910   -1.3538    6.8203 C   0  0  0  0  0  0  0  0  0  0  0  0
   -5.8926   -0.9478    5.4573 C   0  0  0  0  0  0  0  0  0  0  0  0
   -6.6133   -1.2911    4.3284 C   0  0  0  0  0  0  0  0  0  0  0  0
   -6.1586   -0.9201    3.0779 C   0  0  0  0  0  0  0  0  0  0  0  0
   -4.9776   -0.2025    2.9552 C   0  0  0  0  0  0  0  0  0  0  0  0
   -4.2533    0.1358    4.0891 C   0  0  0  0  0  0  0  0  0  0  0  0
   -4.7150   -0.2330    5.3377 C   0  0  0  0  0  0  0  0  0  0  0  0
   -4.5282    0.1637    1.7261 O   0  0  0  0  0  0  0  0  0  0  0  0
   -3.3050    0.9009    1.6756 C   0  0  0  0  0  0  0  0  0  0  0  0
   -2.9622    1.2210    0.2193 C   0  0  0  0  0  0  0  0  0  0  0  0
   -1.6723    1.9984    0.1661 C   0  0  0  0  0  0  0  0  0  0  0  0
   -0.4664    1.3301    0.0611 C   0  0  0  0  0  0  0  0  0  0  0  0
    0.7171    2.0420    0.0065 C   0  0  0  0  0  0  0  0  0  0  0  0
    0.6967    3.4229    0.0621 C   0  0  0  0  0  0  0  0  0  0  0  0
   -0.5096    4.0930    0.1730 C   0  0  0  0  0  0  0  0  0  0  0  0
   -1.6947    3.3786    0.2281 C   0  0  0  0  0  0  0  0  0  0  0  0
   -0.5308    5.4427    0.2270 F   0  0  0  0  0  0  0  0  0  0  0  0
   -6.4136   -3.1865    8.4906 C   0  0  0  0  0  0  0  0  0  0  0  0
   -5.6946   -3.4110    9.4354 O   0  0  0  0  0  0  0  0  0  0  0  0
   -1.4053   -0.2243   12.2549 H   0  0  0  0  0  0  0  0  0  0  0  0
   -0.5793    1.0764   10.3371 H   0  0  0  0  0  0  0  0  0  0  0  0
   -0.6340    0.1117    8.0755 H   0  0  0  0  0  0  0  0  0  0  0  0
   -2.3641   -3.4757    9.6696 H   0  0  0  0  0  0  0  0  0  0  0  0
   -2.2919   -2.4950   11.9238 H   0  0  0  0  0  0  0  0  0  0  0  0
   -0.3115   -4.7104    6.9634 H   0  0  0  0  0  0  0  0  0  0  0  0
   -1.3850   -6.8873    6.5978 H   0  0  0  0  0  0  0  0  0  0  0  0
   -3.8377   -7.0735    6.5688 H   0  0  0  0  0  0  0  0  0  0  0  0
   -5.2387   -5.0867    6.9129 H   0  0  0  0  0  0  0  0  0  0  0  0
   -3.9525   -1.7785    7.5381 H   0  0  0  0  0  0  0  0  0  0  0  0
   -6.0698   -0.6188    7.5584 H   0  0  0  0  0  0  0  0  0  0  0  0
   -7.4797   -1.4051    6.8086 H   0  0  0  0  0  0  0  0  0  0  0  0
   -7.5328   -1.8494    4.4244 H   0  0  0  0  0  0  0  0  0  0  0  0
   -6.7218   -1.1887    2.1963 H   0  0  0  0  0  0  0  0  0  0  0  0
   -3.3313    0.6905    3.9959 H   0  0  0  0  0  0  0  0  0  0  0  0
   -4.1538    0.0339    6.2210 H   0  0  0  0  0  0  0  0  0  0  0  0
   -2.5041    0.3064    2.1152 H   0  0  0  0  0  0  0  0  0  0  0  0
   -3.4172    1.8296    2.2351 H   0  0  0  0  0  0  0  0  0  0  0  0
   -3.7631    1.8155   -0.2203 H   0  0  0  0  0  0  0  0  0  0  0  0
   -2.8500    0.2923   -0.3401 H   0  0  0  0  0  0  0  0  0  0  0  0
   -0.4496    0.2511    0.0172 H   0  0  0  0  0  0  0  0  0  0  0  0
    1.6581    1.5191   -0.0801 H   0  0  0  0  0  0  0  0  0  0  0  0
    1.6215    3.9790    0.0187 H   0  0  0  0  0  0  0  0  0  0  0  0
   -2.6364    3.9003    0.3146 H   0  0  0  0  0  0  0  0  0  0  0  0
   -7.7413   -3.3475    8.6044 O   0  5  0  0  0  0  0  0  0  0  0  0
  1  6  2  0  0  0  0
  1  2  1  0  0  0  0
  1 37  1  0  0  0  0
  2  3  2  0  0  0  0
  2 38  1  0  0  0  0
  3  4  1  0  0  0  0
  3 39  1  0  0  0  0
  4  5  2  0  0  0  0
  4  7  1  0  0  0  0
  5  6  1  0  0  0  0
  5 40  1  0  0  0  0
  6 41  1  0  0  0  0
  7  8  2  0  0  0  0
  7  9  1  0  0  0  0
  9 14  2  0  0  0  0
  9 10  1  0  0  0  0
 10 11  2  0  0  0  0
 10 42  1  0  0  0  0
 11 12  1  0  0  0  0
 11 43  1  0  0  0  0
 12 13  2  0  0  0  0
 12 44  1  0  0  0  0
 13 14  1  0  0  0  0
 13 45  1  0  0  0  0
 14 15  1  0  0  0  0
 15 16  1  0  0  0  0
 15 46  1  0  0  0  0
 16 17  1  0  0  0  0
 16 18  1  0  0  0  0
 16 35  1  0  0  0  0
 18 19  1  0  0  0  0
 18 47  1  0  0  0  0
 18 48  1  0  0  0  0
 19 24  2  0  0  0  0
 19 20  1  0  0  0  0
 20 21  2  0  0  0  0
 20 49  1  0  0  0  0
 21 22  1  0  0  0  0
 21 50  1  0  0  0  0
 22 23  2  0  0  0  0
 22 25  1  0  0  0  0
 23 24  1  0  0  0  0
 23 51  1  0  0  0  0
 24 52  1  0  0  0  0
 25 26  1  0  0  0  0
 26 27  1  0  0  0  0
 26 53  1  0  0  0  0
 26 54  1  0  0  0  0
 27 28  1  0  0  0  0
 27 55  1  0  0  0  0
 27 56  1  0  0  0  0
 28 33  2  0  0  0  0
 28 29  1  0  0  0  0
 29 30  2  0  0  0  0
 29 57  1  0  0  0  0
 30 31  1  0  0  0  0
 30 58  1  0  0  0  0
 31 32  2  0  0  0  0
 31 59  1  0  0  0  0
 32 33  1  0  0  0  0
 32 34  1  0  0  0  0
 33 60  1  0  0  0  0
 35 36  2  0  0  0  0
 35 61  1  0  0  0  0
M  CHG  1  61  -1
M  END
$$$$
ZINC03832308
  -OEChem-08230709403D

 69 72  0     1  0  0  0  0  0999 V2000
   -0.7767    5.6170   10.0790 C   0  0  0  0  0  0  0  0  0  0  0  0
    0.6736    5.7602    9.9293 N   0  0  0  0  0  0  0  0  0  0  0  0
    1.3362    6.9935   10.3605 C   0  0  0  0  0  0  0  0  0  0  0  0
    1.4245    4.7209    9.3754 C   0  0  0  0  0  0  0  0  0  0  0  0
    0.8182    3.5079    9.0740 C   0  0  0  0  0  0  0  0  0  0  0  0
    1.5635    2.4825    8.5260 C   0  0  0  0  0  0  0  0  0  0  0  0
    2.9119    2.6622    8.2772 C   0  0  0  0  0  0  0  0  0  0  0  0
    3.5198    3.8665    8.5812 C   0  0  0  0  0  0  0  0  0  0  0  0
    2.7792    4.8980    9.1242 C   0  0  0  0  0  0  0  0  0  0  0  0
    3.7219    1.5410    7.6791 C   0  0  0  0  0  0  0  0  0  0  0  0
    3.6875    1.6447    6.1530 C   0  0  0  0  0  0  0  0  0  0  0  0
    4.4556    0.5815    5.5859 O   0  0  0  0  0  0  0  0  0  0  0  0
    4.5282    0.5280    4.2299 C   0  0  0  0  0  0  0  0  0  0  0  0
    5.2571   -0.4779    3.6122 C   0  0  0  0  0  0  0  0  0  0  0  0
    5.3290   -0.5304    2.2337 C   0  0  0  0  0  0  0  0  0  0  0  0
    4.6753    0.4186    1.4696 C   0  0  0  0  0  0  0  0  0  0  0  0
    3.9528    1.4255    2.0828 C   0  0  0  0  0  0  0  0  0  0  0  0
    3.8732    1.4790    3.4610 C   0  0  0  0  0  0  0  0  0  0  0  0
    4.7553    0.3590   -0.0341 C   0  0  0  0  0  0  0  0  0  0  0  0
    3.6060   -0.4954   -0.5726 C   0  0  2  0  0  0  0  0  0  0  0  0
    3.6284   -1.4759   -0.0970 H   0  0  0  0  0  0  0  0  0  0  0  0
    3.7557   -0.6567   -2.0634 C   0  0  0  0  0  0  0  0  0  0  0  0
    2.8857   -0.2636   -2.8040 O   0  0  0  0  0  0  0  0  0  0  0  0
    2.3299    0.1612   -0.2782 N   0  0  0  0  0  0  0  0  0  0  0  0
    1.1683   -0.5922   -0.1793 C   0  0  0  0  0  0  0  0  0  0  0  0
    1.2249   -1.9779   -0.2656 C   0  0  0  0  0  0  0  0  0  0  0  0
    0.0683   -2.7241   -0.1727 C   0  0  0  0  0  0  0  0  0  0  0  0
   -1.1567   -2.1014    0.0128 C   0  0  0  0  0  0  0  0  0  0  0  0
   -1.2333   -0.7298    0.1061 C   0  0  0  0  0  0  0  0  0  0  0  0
   -0.0704    0.0417    0.0140 C   0  0  0  0  0  0  0  0  0  0  0  0
   -0.1447    1.5096    0.1130 C   0  0  0  0  0  0  0  0  0  0  0  0
   -0.3132    2.0382    1.1951 O   0  0  0  0  0  0  0  0  0  0  0  0
   -0.0082    2.3401   -1.1021 C   0  0  0  0  0  0  0  0  0  0  0  0
    0.0748    1.7364   -2.3586 C   0  0  0  0  0  0  0  0  0  0  0  0
    0.1977    2.5176   -3.4887 C   0  0  0  0  0  0  0  0  0  0  0  0
    0.2483    3.8961   -3.3786 C   0  0  0  0  0  0  0  0  0  0  0  0
    0.1718    4.5006   -2.1362 C   0  0  0  0  0  0  0  0  0  0  0  0
    0.0440    3.7317   -0.9982 C   0  0  0  0  0  0  0  0  0  0  0  0
   -1.0739    4.6087    9.7907 H   0  0  0  0  0  0  0  0  0  0  0  0
   -1.0540    5.7944   11.1181 H   0  0  0  0  0  0  0  0  0  0  0  0
   -1.2813    6.3413    9.4395 H   0  0  0  0  0  0  0  0  0  0  0  0
    1.3644    7.7001    9.5310 H   0  0  0  0  0  0  0  0  0  0  0  0
    0.7838    7.4312   11.1920 H   0  0  0  0  0  0  0  0  0  0  0  0
    2.3536    6.7670   10.6795 H   0  0  0  0  0  0  0  0  0  0  0  0
   -0.2348    3.3668    9.2684 H   0  0  0  0  0  0  0  0  0  0  0  0
    1.0927    1.5394    8.2911 H   0  0  0  0  0  0  0  0  0  0  0  0
    4.5741    4.0019    8.3901 H   0  0  0  0  0  0  0  0  0  0  0  0
    3.2536    5.8398    9.3573 H   0  0  0  0  0  0  0  0  0  0  0  0
    3.3013    0.5840    7.9879 H   0  0  0  0  0  0  0  0  0  0  0  0
    4.7531    1.6131    8.0250 H   0  0  0  0  0  0  0  0  0  0  0  0
    4.1082    2.6017    5.8443 H   0  0  0  0  0  0  0  0  0  0  0  0
    2.6563    1.5725    5.8072 H   0  0  0  0  0  0  0  0  0  0  0  0
    5.7676   -1.2196    4.2086 H   0  0  0  0  0  0  0  0  0  0  0  0
    5.8959   -1.3135    1.7523 H   0  0  0  0  0  0  0  0  0  0  0  0
    3.4470    2.1683    1.4839 H   0  0  0  0  0  0  0  0  0  0  0  0
    3.3051    2.2631    3.9395 H   0  0  0  0  0  0  0  0  0  0  0  0
    5.7066   -0.0834   -0.3301 H   0  0  0  0  0  0  0  0  0  0  0  0
    4.6809    1.3670   -0.4422 H   0  0  0  0  0  0  0  0  0  0  0  0
    2.2967    1.1224   -0.1523 H   0  0  0  0  0  0  0  0  0  0  0  0
    2.1748   -2.4710   -0.4101 H   0  0  0  0  0  0  0  0  0  0  0  0
    0.1173   -3.8006   -0.2446 H   0  0  0  0  0  0  0  0  0  0  0  0
   -2.0558   -2.6955    0.0841 H   0  0  0  0  0  0  0  0  0  0  0  0
   -2.1902   -0.2503    0.2506 H   0  0  0  0  0  0  0  0  0  0  0  0
    0.0396    0.6605   -2.4455 H   0  0  0  0  0  0  0  0  0  0  0  0
    0.2583    2.0522   -4.4614 H   0  0  0  0  0  0  0  0  0  0  0  0
    0.3484    4.5029   -4.2664 H   0  0  0  0  0  0  0  0  0  0  0  0
    0.2120    5.5770   -2.0574 H   0  0  0  0  0  0  0  0  0  0  0  0
   -0.0153    4.2047   -0.0292 H   0  0  0  0  0  0  0  0  0  0  0  0
    4.8556   -1.2371   -2.5686 O   0  5  0  0  0  0  0  0  0  0  0  0
  1  2  1  0  0  0  0
  1 39  1  0  0  0  0
  1 40  1  0  0  0  0
  1 41  1  0  0  0  0
  2  3  1  0  0  0  0
  2  4  1  0  0  0  0
  3 42  1  0  0  0  0
  3 43  1  0  0  0  0
  3 44  1  0  0  0  0
  4  9  2  0  0  0  0
  4  5  1  0  0  0  0
  5  6  2  0  0  0  0
  5 45  1  0  0  0  0
  6  7  1  0  0  0  0
  6 46  1  0  0  0  0
  7  8  2  0  0  0  0
  7 10  1  0  0  0  0
  8  9  1  0  0  0  0
  8 47  1  0  0  0  0
  9 48  1  0  0  0  0
 10 11  1  0  0  0  0
 10 49  1  0  0  0  0
 10 50  1  0  0  0  0
 11 12  1  0  0  0  0
 11 51  1  0  0  0  0
 11 52  1  0  0  0  0
 12 13  1  0  0  0  0
 13 18  2  0  0  0  0
 13 14  1  0  0  0  0
 14 15  2  0  0  0  0
 14 53  1  0  0  0  0
 15 16  1  0  0  0  0
 15 54  1  0  0  0  0
 16 17  2  0  0  0  0
 16 19  1  0  0  0  0
 17 18  1  0  0  0  0
 17 55  1  0  0  0  0
 18 56  1  0  0  0  0
 19 20  1  0  0  0  0
 19 57  1  0  0  0  0
 19 58  1  0  0  0  0
 20 21  1  0  0  0  0
 20 22  1  0  0  0  0
 20 24  1  0  0  0  0
 22 23  2  0  0  0  0
 22 69  1  0  0  0  0
 24 25  1  0  0  0  0
 24 59  1  0  0  0  0
 25 30  2  0  0  0  0
 25 26  1  0  0  0  0
 26 27  2  0  0  0  0
 26 60  1  0  0  0  0
 27 28  1  0  0  0  0
 27 61  1  0  0  0  0
 28 29  2  0  0  0  0
 28 62  1  0  0  0  0
 29 30  1  0  0  0  0
 29 63  1  0  0  0  0
 30 31  1  0  0  0  0
 31 32  2  0  0  0  0
 31 33  1  0  0  0  0
 33 38  2  0  0  0  0
 33 34  1  0  0  0  0
 34 35  2  0  0  0  0
 34 64  1  0  0  0  0
 35 36  1  0  0  0  0
 35 65  1  0  0  0  0
 36 37  2  0  0  0  0
 36 66  1  0  0  0  0
 37 38  1  0  0  0  0
 37 67  1  0  0  0  0
 38 68  1  0  0  0  0
M  CHG  1  69  -1
M  END
$$$$
ZINC03832309
  -OEChem-08230709403D

 69 73  0     1  0  0  0  0  0999 V2000
    8.2009    3.8498   -3.1146 C   0  0  0  0  0  0  0  0  0  0  0  0
    8.9764    2.6244   -2.9076 N   0  0  0  0  0  0  0  0  0  0  0  0
    8.3720    1.3192   -3.1857 C   0  0  0  0  0  0  0  0  0  0  0  0
    7.6873    0.7945   -1.9220 C   0  0  0  0  0  0  0  0  0  0  0  0
    6.5960    1.6516   -1.5807 O   0  0  0  0  0  0  0  0  0  0  0  0
    5.8770    1.3245   -0.4748 C   0  0  0  0  0  0  0  0  0  0  0  0
    4.8039    2.1128   -0.0855 C   0  0  0  0  0  0  0  0  0  0  0  0
    4.0749    1.7784    1.0394 C   0  0  0  0  0  0  0  0  0  0  0  0
    4.4138    0.6589    1.7766 C   0  0  0  0  0  0  0  0  0  0  0  0
    5.4864   -0.1252    1.3939 C   0  0  0  0  0  0  0  0  0  0  0  0
    6.2153    0.2020    0.2669 C   0  0  0  0  0  0  0  0  0  0  0  0
    3.6166    0.2962    3.0030 C   0  0  0  0  0  0  0  0  0  0  0  0
    2.4636   -0.6282    2.6067 C   0  0  1  0  0  0  0  0  0  0  0  0
    2.8581   -1.4931    2.0733 H   0  0  0  0  0  0  0  0  0  0  0  0
    1.7407   -1.0893    3.8460 C   0  0  0  0  0  0  0  0  0  0  0  0
    0.5677   -0.8377    3.9901 O   0  0  0  0  0  0  0  0  0  0  0  0
    1.5320    0.0972    1.7394 N   0  0  0  0  0  0  0  0  0  0  0  0
    0.7216   -0.6040    0.8437 C   0  0  0  0  0  0  0  0  0  0  0  0
    0.8779   -1.9760    0.6908 C   0  0  0  0  0  0  0  0  0  0  0  0
    0.0782   -2.6654   -0.1992 C   0  0  0  0  0  0  0  0  0  0  0  0
   -0.8806   -1.9924   -0.9344 C   0  0  0  0  0  0  0  0  0  0  0  0
   -1.0416   -0.6277   -0.7815 C   0  0  0  0  0  0  0  0  0  0  0  0
   -0.2454    0.0680    0.1073 C   0  0  0  0  0  0  0  0  0  0  0  0
   -0.4515    1.8071    0.3013 S   0  0  0  0  0  0  0  0  0  0  0  0
    0.8478    2.3793    0.2403 O   0  0  0  0  0  0  0  0  0  0  0  0
   -1.4962    2.1932   -0.5812 O   0  0  0  0  0  0  0  0  0  0  0  0
   -1.0465    2.0819    1.9369 C   0  0  0  0  0  0  0  0  0  0  0  0
   -2.3972    1.9699    2.2089 C   0  0  0  0  0  0  0  0  0  0  0  0
   -2.8634    2.1808    3.4931 C   0  0  0  0  0  0  0  0  0  0  0  0
   -1.9802    2.5135    4.5031 C   0  0  0  0  0  0  0  0  0  0  0  0
   -0.6302    2.6311    4.2299 C   0  0  0  0  0  0  0  0  0  0  0  0
   -0.1634    2.4151    2.9468 C   0  0  0  0  0  0  0  0  0  0  0  0
   10.2731    2.6992   -2.4518 C   0  0  0  0  0  0  0  0  0  0  0  0
   11.0499    1.6702   -2.2281 N   0  0  0  0  0  0  0  0  0  0  0  0
   12.2572    2.1218   -1.7900 C   0  0  0  0  0  0  0  0  0  0  0  0
   13.4419    1.4903   -1.4093 C   0  0  0  0  0  0  0  0  0  0  0  0
   14.5167    2.2462   -0.9952 C   0  0  0  0  0  0  0  0  0  0  0  0
   14.4275    3.6291   -0.9549 C   0  0  0  0  0  0  0  0  0  0  0  0
   13.2615    4.2663   -1.3288 C   0  0  0  0  0  0  0  0  0  0  0  0
   12.1712    3.5214   -1.7477 C   0  0  0  0  0  0  0  0  0  0  0  0
   10.9246    3.8402   -2.1658 O   0  0  0  0  0  0  0  0  0  0  0  0
    7.6707    4.1037   -2.1967 H   0  0  0  0  0  0  0  0  0  0  0  0
    8.8735    4.6645   -3.3829 H   0  0  0  0  0  0  0  0  0  0  0  0
    7.4814    3.6931   -3.9183 H   0  0  0  0  0  0  0  0  0  0  0  0
    9.1470    0.6186   -3.4965 H   0  0  0  0  0  0  0  0  0  0  0  0
    7.6349    1.4224   -3.9820 H   0  0  0  0  0  0  0  0  0  0  0  0
    8.4046    0.7754   -1.1014 H   0  0  0  0  0  0  0  0  0  0  0  0
    7.3148   -0.2138   -2.1025 H   0  0  0  0  0  0  0  0  0  0  0  0
    4.5384    2.9869   -0.6614 H   0  0  0  0  0  0  0  0  0  0  0  0
    3.2394    2.3917    1.3429 H   0  0  0  0  0  0  0  0  0  0  0  0
    5.7521   -0.9965    1.9742 H   0  0  0  0  0  0  0  0  0  0  0  0
    7.0505   -0.4131   -0.0339 H   0  0  0  0  0  0  0  0  0  0  0  0
    3.2160    1.2025    3.4571 H   0  0  0  0  0  0  0  0  0  0  0  0
    4.2619   -0.2140    3.7181 H   0  0  0  0  0  0  0  0  0  0  0  0
    1.4781    1.0645    1.7873 H   0  0  0  0  0  0  0  0  0  0  0  0
    1.6264   -2.5022    1.2645 H   0  0  0  0  0  0  0  0  0  0  0  0
    0.2014   -3.7314   -0.3210 H   0  0  0  0  0  0  0  0  0  0  0  0
   -1.5047   -2.5340   -1.6298 H   0  0  0  0  0  0  0  0  0  0  0  0
   -1.7911   -0.1051   -1.3575 H   0  0  0  0  0  0  0  0  0  0  0  0
   -3.0877    1.7139    1.4190 H   0  0  0  0  0  0  0  0  0  0  0  0
   -3.9181    2.0893    3.7065 H   0  0  0  0  0  0  0  0  0  0  0  0
   -2.3449    2.6819    5.5056 H   0  0  0  0  0  0  0  0  0  0  0  0
    0.0598    2.8914    5.0189 H   0  0  0  0  0  0  0  0  0  0  0  0
    0.8913    2.5070    2.7333 H   0  0  0  0  0  0  0  0  0  0  0  0
   13.5161    0.4132   -1.4394 H   0  0  0  0  0  0  0  0  0  0  0  0
   15.4343    1.7586   -0.7007 H   0  0  0  0  0  0  0  0  0  0  0  0
   15.2761    4.2119   -0.6283 H   0  0  0  0  0  0  0  0  0  0  0  0
   13.1992    5.3440   -1.2945 H   0  0  0  0  0  0  0  0  0  0  0  0
    2.3999   -1.7794    4.7899 O   0  5  0  0  0  0  0  0  0  0  0  0
  1  2  1  0  0  0  0
  1 42  1  0  0  0  0
  1 43  1  0  0  0  0
  1 44  1  0  0  0  0
  2  3  1  0  0  0  0
  2 33  1  0  0  0  0
  3  4  1  0  0  0  0
  3 45  1  0  0  0  0
  3 46  1  0  0  0  0
  4  5  1  0  0  0  0
  4 47  1  0  0  0  0
  4 48  1  0  0  0  0
  5  6  1  0  0  0  0
  6 11  2  0  0  0  0
  6  7  1  0  0  0  0
  7  8  2  0  0  0  0
  7 49  1  0  0  0  0
  8  9  1  0  0  0  0
  8 50  1  0  0  0  0
  9 10  2  0  0  0  0
  9 12  1  0  0  0  0
 10 11  1  0  0  0  0
 10 51  1  0  0  0  0
 11 52  1  0  0  0  0
 12 13  1  0  0  0  0
 12 53  1  0  0  0  0
 12 54  1  0  0  0  0
 13 14  1  0  0  0  0
 13 15  1  0  0  0  0
 13 17  1  0  0  0  0
 15 16  2  0  0  0  0
 15 69  1  0  0  0  0
 17 18  1  0  0  0  0
 17 55  1  0  0  0  0
 18 23  2  0  0  0  0
 18 19  1  0  0  0  0
 19 20  2  0  0  0  0
 19 56  1  0  0  0  0
 20 21  1  0  0  0  0
 20 57  1  0  0  0  0
 21 22  2  0  0  0  0
 21 58  1  0  0  0  0
 22 23  1  0  0  0  0
 22 59  1  0  0  0  0
 23 24  1  0  0  0  0
 24 25  2  0  0  0  0
 24 26  2  0  0  0  0
 24 27  1  0  0  0  0
 27 32  2  0  0  0  0
 27 28  1  0  0  0  0
 28 29  2  0  0  0  0
 28 60  1  0  0  0  0
 29 30  1  0  0  0  0
 29 61  1  0  0  0  0
 30 31  2  0  0  0  0
 30 62  1  0  0  0  0
 31 32  1  0  0  0  0
 31 63  1  0  0  0  0
 32 64  1  0  0  0  0
 33 41  1  0  0  0  0
 33 34  2  0  0  0  0
 34 35  1  0  0  0  0
 35 40  2  0  0  0  0
 35 36  1  0  0  0  0
 36 37  2  0  0  0  0
 36 65  1  0  0  0  0
 37 38  1  0  0  0  0
 37 66  1  0  0  0  0
 38 39  2  0  0  0  0
 38 67  1  0  0  0  0
 39 40  1  0  0  0  0
 39 68  1  0  0  0  0
 40 41  1  0  0  0  0
M  CHG  1  69  -1
M  END
$$$$
ZINC03832310
  -OEChem-08230709403D

 64 67  0     1  0  0  0  0  0999 V2000
    0.4314    0.2553   -0.0357 C   0  0  0  0  0  0  0  0  0  0  0  0
    0.4183    1.7615   -0.0810 C   0  0  0  0  0  0  0  0  0  0  0  0
   -0.7826    2.4444   -0.0253 C   0  0  0  0  0  0  0  0  0  0  0  0
   -0.7943    3.8260   -0.0620 C   0  0  0  0  0  0  0  0  0  0  0  0
    0.3942    4.5249   -0.1649 C   0  0  0  0  0  0  0  0  0  0  0  0
    1.5944    3.8421   -0.2259 C   0  0  0  0  0  0  0  0  0  0  0  0
    1.6064    2.4602   -0.1840 C   0  0  0  0  0  0  0  0  0  0  0  0
    2.9150    1.7157   -0.2510 C   0  0  0  0  0  0  0  0  0  0  0  0
    3.1977    1.3106   -1.6990 C   0  0  0  0  0  0  0  0  0  0  0  0
    4.4385    0.6046   -1.7625 O   0  0  0  0  0  0  0  0  0  0  0  0
    4.8398    0.1713   -2.9865 C   0  0  0  0  0  0  0  0  0  0  0  0
    4.0527    0.4155   -4.1025 C   0  0  0  0  0  0  0  0  0  0  0  0
    4.4655   -0.0215   -5.3464 C   0  0  0  0  0  0  0  0  0  0  0  0
    5.6568   -0.7108   -5.4780 C   0  0  0  0  0  0  0  0  0  0  0  0
    6.4403   -0.9604   -4.3664 C   0  0  0  0  0  0  0  0  0  0  0  0
    6.0345   -0.5210   -3.1212 C   0  0  0  0  0  0  0  0  0  0  0  0
    6.1019   -1.1913   -6.8352 C   0  0  0  0  0  0  0  0  0  0  0  0
    5.5551   -2.5987   -7.0825 C   0  0  2  0  0  0  0  0  0  0  0  0
    5.8598   -3.2553   -6.2676 H   0  0  0  0  0  0  0  0  0  0  0  0
    6.0998   -3.1277   -8.3843 C   0  0  0  0  0  0  0  0  0  0  0  0
    5.3438   -3.4324   -9.2762 O   0  0  0  0  0  0  0  0  0  0  0  0
    4.0924   -2.5496   -7.1492 N   0  0  0  0  0  0  0  0  0  0  0  0
    3.3457   -3.6804   -6.8487 C   0  0  0  0  0  0  0  0  0  0  0  0
    3.9807   -4.8902   -6.5959 C   0  0  0  0  0  0  0  0  0  0  0  0
    3.2365   -6.0113   -6.2918 C   0  0  0  0  0  0  0  0  0  0  0  0
    1.8522   -5.9449   -6.2470 C   0  0  0  0  0  0  0  0  0  0  0  0
    1.2037   -4.7569   -6.5001 C   0  0  0  0  0  0  0  0  0  0  0  0
    1.9433   -3.6095   -6.8042 C   0  0  0  0  0  0  0  0  0  0  0  0
    1.2563   -2.3352   -7.0766 C   0  0  0  0  0  0  0  0  0  0  0  0
    0.7862   -1.6897   -6.1594 O   0  0  0  0  0  0  0  0  0  0  0  0
    1.1385   -1.8411   -8.4646 C   0  0  0  0  0  0  0  0  0  0  0  0
    1.5802   -2.6291   -9.5295 C   0  0  0  0  0  0  0  0  0  0  0  0
    1.4619   -2.1642  -10.8228 C   0  0  0  0  0  0  0  0  0  0  0  0
    0.9176   -0.9153  -11.0654 C   0  0  0  0  0  0  0  0  0  0  0  0
    0.4831   -0.1269  -10.0144 C   0  0  0  0  0  0  0  0  0  0  0  0
    0.5901   -0.5817   -8.7167 C   0  0  0  0  0  0  0  0  0  0  0  0
    0.5049   -0.0765    1.0000 H   0  0  0  0  0  0  0  0  0  0  0  0
   -0.4884   -0.1295   -0.4761 H   0  0  0  0  0  0  0  0  0  0  0  0
    1.2873   -0.1177   -0.5983 H   0  0  0  0  0  0  0  0  0  0  0  0
   -1.7113    1.8983    0.0506 H   0  0  0  0  0  0  0  0  0  0  0  0
   -1.7321    4.3595   -0.0147 H   0  0  0  0  0  0  0  0  0  0  0  0
    0.3848    5.6043   -0.1981 H   0  0  0  0  0  0  0  0  0  0  0  0
    2.5227    4.3880   -0.3067 H   0  0  0  0  0  0  0  0  0  0  0  0
    3.7177    2.3587    0.1098 H   0  0  0  0  0  0  0  0  0  0  0  0
    2.8572    0.8227    0.3715 H   0  0  0  0  0  0  0  0  0  0  0  0
    2.3949    0.6675   -2.0598 H   0  0  0  0  0  0  0  0  0  0  0  0
    3.2554    2.2035   -2.3214 H   0  0  0  0  0  0  0  0  0  0  0  0
    3.1201    0.9502   -3.9996 H   0  0  0  0  0  0  0  0  0  0  0  0
    3.8553    0.1723   -6.2161 H   0  0  0  0  0  0  0  0  0  0  0  0
    7.3704   -1.4990   -4.4718 H   0  0  0  0  0  0  0  0  0  0  0  0
    6.6467   -0.7165   -2.2531 H   0  0  0  0  0  0  0  0  0  0  0  0
    5.7242   -0.5148   -7.6020 H   0  0  0  0  0  0  0  0  0  0  0  0
    7.1910   -1.2126   -6.8740 H   0  0  0  0  0  0  0  0  0  0  0  0
    3.6458   -1.7269   -7.4033 H   0  0  0  0  0  0  0  0  0  0  0  0
    5.0583   -4.9518   -6.6330 H   0  0  0  0  0  0  0  0  0  0  0  0
    3.7353   -6.9480   -6.0913 H   0  0  0  0  0  0  0  0  0  0  0  0
    1.2794   -6.8300   -6.0126 H   0  0  0  0  0  0  0  0  0  0  0  0
    0.1253   -4.7111   -6.4634 H   0  0  0  0  0  0  0  0  0  0  0  0
    2.0098   -3.6019   -9.3412 H   0  0  0  0  0  0  0  0  0  0  0  0
    1.7994   -2.7743  -11.6476 H   0  0  0  0  0  0  0  0  0  0  0  0
    0.8317   -0.5541  -12.0796 H   0  0  0  0  0  0  0  0  0  0  0  0
    0.0588    0.8467  -10.2108 H   0  0  0  0  0  0  0  0  0  0  0  0
    0.2510    0.0348   -7.8973 H   0  0  0  0  0  0  0  0  0  0  0  0
    7.4249   -3.2603   -8.5529 O   0  5  0  0  0  0  0  0  0  0  0  0
  1  2  1  0  0  0  0
  1 37  1  0  0  0  0
  1 38  1  0  0  0  0
  1 39  1  0  0  0  0
  2  7  2  0  0  0  0
  2  3  1  0  0  0  0
  3  4  2  0  0  0  0
  3 40  1  0  0  0  0
  4  5  1  0  0  0  0
  4 41  1  0  0  0  0
  5  6  2  0  0  0  0
  5 42  1  0  0  0  0
  6  7  1  0  0  0  0
  6 43  1  0  0  0  0
  7  8  1  0  0  0  0
  8  9  1  0  0  0  0
  8 44  1  0  0  0  0
  8 45  1  0  0  0  0
  9 10  1  0  0  0  0
  9 46  1  0  0  0  0
  9 47  1  0  0  0  0
 10 11  1  0  0  0  0
 11 16  2  0  0  0  0
 11 12  1  0  0  0  0
 12 13  2  0  0  0  0
 12 48  1  0  0  0  0
 13 14  1  0  0  0  0
 13 49  1  0  0  0  0
 14 15  2  0  0  0  0
 14 17  1  0  0  0  0
 15 16  1  0  0  0  0
 15 50  1  0  0  0  0
 16 51  1  0  0  0  0
 17 18  1  0  0  0  0
 17 52  1  0  0  0  0
 17 53  1  0  0  0  0
 18 19  1  0  0  0  0
 18 20  1  0  0  0  0
 18 22  1  0  0  0  0
 20 21  2  0  0  0  0
 20 64  1  0  0  0  0
 22 23  1  0  0  0  0
 22 54  1  0  0  0  0
 23 28  2  0  0  0  0
 23 24  1  0  0  0  0
 24 25  2  0  0  0  0
 24 55  1  0  0  0  0
 25 26  1  0  0  0  0
 25 56  1  0  0  0  0
 26 27  2  0  0  0  0
 26 57  1  0  0  0  0
 27 28  1  0  0  0  0
 27 58  1  0  0  0  0
 28 29  1  0  0  0  0
 29 30  2  0  0  0  0
 29 31  1  0  0  0  0
 31 36  2  0  0  0  0
 31 32  1  0  0  0  0
 32 33  2  0  0  0  0
 32 59  1  0  0  0  0
 33 34  1  0  0  0  0
 33 60  1  0  0  0  0
 34 35  2  0  0  0  0
 34 61  1  0  0  0  0
 35 36  1  0  0  0  0
 35 62  1  0  0  0  0
 36 63  1  0  0  0  0
M  CHG  1  64  -1
M  END
$$$$
ZINC03834051
  -OEChem-08230709403D

 65 69  0     1  0  0  0  0  0999 V2000
    0.4737    3.3589   -9.3705 C   0  0  0  0  0  0  0  0  0  0  0  0
    1.8473    3.2730   -8.8687 N   0  0  0  0  0  0  0  0  0  0  0  0
    2.2708    2.1073   -8.0890 C   0  0  0  0  0  0  0  0  0  0  0  0
    2.0162    2.3677   -6.6030 C   0  0  0  0  0  0  0  0  0  0  0  0
    0.6106    2.4854   -6.3740 O   0  0  0  0  0  0  0  0  0  0  0  0
    0.2111    2.7196   -5.0964 C   0  0  0  0  0  0  0  0  0  0  0  0
   -1.1390    2.8448   -4.8024 C   0  0  0  0  0  0  0  0  0  0  0  0
   -1.5425    3.0833   -3.5029 C   0  0  0  0  0  0  0  0  0  0  0  0
   -0.6022    3.1968   -2.4956 C   0  0  0  0  0  0  0  0  0  0  0  0
    0.7442    3.0780   -2.7869 C   0  0  0  0  0  0  0  0  0  0  0  0
    1.1526    2.8343   -4.0839 C   0  0  0  0  0  0  0  0  0  0  0  0
   -1.0452    3.4565   -1.0788 C   0  0  0  0  0  0  0  0  0  0  0  0
   -1.2757    2.1235   -0.3640 C   0  0  2  0  0  0  0  0  0  0  0  0
   -1.9813    1.5215   -0.9366 H   0  0  0  0  0  0  0  0  0  0  0  0
   -1.8355    2.3811    1.0112 C   0  0  0  0  0  0  0  0  0  0  0  0
   -1.2338    2.0040    1.9888 O   0  0  0  0  0  0  0  0  0  0  0  0
   -0.0039    1.4058   -0.2470 N   0  0  0  0  0  0  0  0  0  0  0  0
    0.0044    0.0069   -0.1285 C   0  0  0  0  0  0  0  0  0  0  0  0
   -1.1428   -0.7076   -0.1077 C   0  0  0  0  0  0  0  0  0  0  0  0
   -0.5721   -2.3870    0.0519 S   0  0  0  0  0  0  0  0  0  0  0  0
    1.1363   -2.1094    0.0955 C   0  0  0  0  0  0  0  0  0  0  0  0
    1.2393   -0.7348   -0.0171 C   0  0  0  0  0  0  0  0  0  0  0  0
    2.5441   -0.0601   -0.0235 C   0  0  0  0  0  0  0  0  0  0  0  0
    3.2436   -0.0981   -1.0181 O   0  0  0  0  0  0  0  0  0  0  0  0
    3.0072    0.6654    1.1790 C   0  0  0  0  0  0  0  0  0  0  0  0
    2.2582    0.6214    2.3562 C   0  0  0  0  0  0  0  0  0  0  0  0
    2.6980    1.2972    3.4755 C   0  0  0  0  0  0  0  0  0  0  0  0
    3.8739    2.0251    3.4304 C   0  0  0  0  0  0  0  0  0  0  0  0
    4.6186    2.0768    2.2653 C   0  0  0  0  0  0  0  0  0  0  0  0
    4.1925    1.4021    1.1402 C   0  0  0  0  0  0  0  0  0  0  0  0
    2.7402    4.2876   -9.1298 C   0  0  0  0  0  0  0  0  0  0  0  0
    3.9845    4.3139   -8.7256 N   0  0  0  0  0  0  0  0  0  0  0  0
    4.5637    5.4627   -9.1709 C   0  0  0  0  0  0  0  0  0  0  0  0
    5.8421    6.0083   -9.0465 C   0  0  0  0  0  0  0  0  0  0  0  0
    6.1235    7.2280   -9.6221 C   0  0  0  0  0  0  0  0  0  0  0  0
    5.1445    7.9152  -10.3231 C   0  0  0  0  0  0  0  0  0  0  0  0
    3.8760    7.3868  -10.4536 C   0  0  0  0  0  0  0  0  0  0  0  0
    3.5761    6.1614   -9.8811 C   0  0  0  0  0  0  0  0  0  0  0  0
    2.4594    5.3991   -9.8325 O   0  0  0  0  0  0  0  0  0  0  0  0
   -0.1535    3.8549   -8.6297 H   0  0  0  0  0  0  0  0  0  0  0  0
    0.4609    3.9305  -10.2986 H   0  0  0  0  0  0  0  0  0  0  0  0
    0.0914    2.3552   -9.5567 H   0  0  0  0  0  0  0  0  0  0  0  0
    3.3341    1.9294   -8.2497 H   0  0  0  0  0  0  0  0  0  0  0  0
    1.7040    1.2322   -8.4068 H   0  0  0  0  0  0  0  0  0  0  0  0
    2.5113    3.2923   -6.3062 H   0  0  0  0  0  0  0  0  0  0  0  0
    2.4119    1.5390   -6.0158 H   0  0  0  0  0  0  0  0  0  0  0  0
   -1.8739    2.7556   -5.5888 H   0  0  0  0  0  0  0  0  0  0  0  0
   -2.5933    3.1809   -3.2735 H   0  0  0  0  0  0  0  0  0  0  0  0
    1.4770    3.1718   -1.9991 H   0  0  0  0  0  0  0  0  0  0  0  0
    2.2042    2.7376   -4.3103 H   0  0  0  0  0  0  0  0  0  0  0  0
   -1.9725    4.0293   -1.0873 H   0  0  0  0  0  0  0  0  0  0  0  0
   -0.2741    4.0212   -0.5547 H   0  0  0  0  0  0  0  0  0  0  0  0
    0.8326    1.8968   -0.2555 H   0  0  0  0  0  0  0  0  0  0  0  0
   -2.1589   -0.3476   -0.1733 H   0  0  0  0  0  0  0  0  0  0  0  0
    1.9306   -2.8352    0.1888 H   0  0  0  0  0  0  0  0  0  0  0  0
    1.3383    0.0566    2.3916 H   0  0  0  0  0  0  0  0  0  0  0  0
    2.1211    1.2615    4.3878 H   0  0  0  0  0  0  0  0  0  0  0  0
    4.2118    2.5555    4.3084 H   0  0  0  0  0  0  0  0  0  0  0  0
    5.5353    2.6471    2.2367 H   0  0  0  0  0  0  0  0  0  0  0  0
    4.7743    1.4438    0.2312 H   0  0  0  0  0  0  0  0  0  0  0  0
    6.6080    5.4763   -8.5016 H   0  0  0  0  0  0  0  0  0  0  0  0
    7.1126    7.6511   -9.5268 H   0  0  0  0  0  0  0  0  0  0  0  0
    5.3759    8.8708  -10.7700 H   0  0  0  0  0  0  0  0  0  0  0  0
    3.1184    7.9280  -11.0008 H   0  0  0  0  0  0  0  0  0  0  0  0
   -3.0025    3.0296    1.1502 O   0  5  0  0  0  0  0  0  0  0  0  0
  1  2  1  0  0  0  0
  1 40  1  0  0  0  0
  1 41  1  0  0  0  0
  1 42  1  0  0  0  0
  2  3  1  0  0  0  0
  2 31  1  0  0  0  0
  3  4  1  0  0  0  0
  3 43  1  0  0  0  0
  3 44  1  0  0  0  0
  4  5  1  0  0  0  0
  4 45  1  0  0  0  0
  4 46  1  0  0  0  0
  5  6  1  0  0  0  0
  6 11  2  0  0  0  0
  6  7  1  0  0  0  0
  7  8  2  0  0  0  0
  7 47  1  0  0  0  0
  8  9  1  0  0  0  0
  8 48  1  0  0  0  0
  9 10  2  0  0  0  0
  9 12  1  0  0  0  0
 10 11  1  0  0  0  0
 10 49  1  0  0  0  0
 11 50  1  0  0  0  0
 12 13  1  0  0  0  0
 12 51  1  0  0  0  0
 12 52  1  0  0  0  0
 13 14  1  0  0  0  0
 13 15  1  0  0  0  0
 13 17  1  0  0  0  0
 15 16  2  0  0  0  0
 15 65  1  0  0  0  0
 17 18  1  0  0  0  0
 17 53  1  0  0  0  0
 18 22  1  0  0  0  0
 18 19  2  0  0  0  0
 19 20  1  0  0  0  0
 19 54  1  0  0  0  0
 20 21  1  0  0  0  0
 21 22  2  0  0  0  0
 21 55  1  0  0  0  0
 22 23  1  0  0  0  0
 23 24  2  0  0  0  0
 23 25  1  0  0  0  0
 25 30  2  0  0  0  0
 25 26  1  0  0  0  0
 26 27  2  0  0  0  0
 26 56  1  0  0  0  0
 27 28  1  0  0  0  0
 27 57  1  0  0  0  0
 28 29  2  0  0  0  0
 28 58  1  0  0  0  0
 29 30  1  0  0  0  0
 29 59  1  0  0  0  0
 30 60  1  0  0  0  0
 31 39  1  0  0  0  0
 31 32  2  0  0  0  0
 32 33  1  0  0  0  0
 33 38  2  0  0  0  0
 33 34  1  0  0  0  0
 34 35  2  0  0  0  0
 34 61  1  0  0  0  0
 35 36  1  0  0  0  0
 35 62  1  0  0  0  0
 36 37  2  0  0  0  0
 36 63  1  0  0  0  0
 37 38  1  0  0  0  0
 37 64  1  0  0  0  0
 38 39  1  0  0  0  0
M  CHG  1  65  -1
M  END
$$$$
ZINC03834052
  -OEChem-08230709403D

 68 72  0     1  0  0  0  0  0999 V2000
    0.0640   -3.3564   -7.8954 C   0  0  0  0  0  0  0  0  0  0  0  0
   -1.3491   -3.3702   -8.2816 N   0  0  0  0  0  0  0  0  0  0  0  0
   -2.1769   -2.1795   -8.0738 C   0  0  0  0  0  0  0  0  0  0  0  0
   -2.8197   -2.2409   -6.6868 C   0  0  0  0  0  0  0  0  0  0  0  0
   -1.8015   -2.1727   -5.6864 O   0  0  0  0  0  0  0  0  0  0  0  0
   -2.2065   -2.2152   -4.3899 C   0  0  0  0  0  0  0  0  0  0  0  0
   -1.2710   -2.1535   -3.3673 C   0  0  0  0  0  0  0  0  0  0  0  0
   -1.6852   -2.1974   -2.0502 C   0  0  0  0  0  0  0  0  0  0  0  0
   -3.0309   -2.3023   -1.7506 C   0  0  0  0  0  0  0  0  0  0  0  0
   -3.9649   -2.3697   -2.7680 C   0  0  0  0  0  0  0  0  0  0  0  0
   -3.5562   -2.3209   -4.0867 C   0  0  0  0  0  0  0  0  0  0  0  0
   -3.4801   -2.3495   -0.3129 C   0  0  0  0  0  0  0  0  0  0  0  0
   -3.7413   -0.9271    0.1868 C   0  0  1  0  0  0  0  0  0  0  0  0
   -4.4536   -0.4346   -0.4751 H   0  0  0  0  0  0  0  0  0  0  0  0
   -4.3069   -0.9810    1.5826 C   0  0  0  0  0  0  0  0  0  0  0  0
   -3.7201   -0.4459    2.4932 O   0  0  0  0  0  0  0  0  0  0  0  0
   -2.4842   -0.1749    0.1979 N   0  0  0  0  0  0  0  0  0  0  0  0
   -2.5030    1.2102    0.1005 C   0  0  0  0  0  0  0  0  0  0  0  0
   -3.7123    1.8943    0.1072 C   0  0  0  0  0  0  0  0  0  0  0  0
   -3.7292    3.2699    0.0041 C   0  0  0  0  0  0  0  0  0  0  0  0
   -2.5427    3.9815   -0.1011 C   0  0  0  0  0  0  0  0  0  0  0  0
   -1.3331    3.3216   -0.1037 C   0  0  0  0  0  0  0  0  0  0  0  0
   -1.2993    1.9273    0.0000 C   0  0  0  0  0  0  0  0  0  0  0  0
   -0.0100    1.2148   -0.0021 C   0  0  0  0  0  0  0  0  0  0  0  0
    0.6034    1.0707   -1.0421 O   0  0  0  0  0  0  0  0  0  0  0  0
    0.5411    0.6803    1.2610 C   0  0  0  0  0  0  0  0  0  0  0  0
   -0.0987    0.9463    2.4735 C   0  0  0  0  0  0  0  0  0  0  0  0
    0.4183    0.4404    3.6479 C   0  0  0  0  0  0  0  0  0  0  0  0
    1.5741   -0.3203    3.6277 C   0  0  0  0  0  0  0  0  0  0  0  0
    2.2161   -0.5834    2.4304 C   0  0  0  0  0  0  0  0  0  0  0  0
    1.7071   -0.0881    1.2480 C   0  0  0  0  0  0  0  0  0  0  0  0
   -2.5823    5.7123   -0.2306 Cl  0  0  0  0  0  0  0  0  0  0  0  0
   -1.8991   -4.5020   -8.8396 C   0  0  0  0  0  0  0  0  0  0  0  0
   -3.1471   -4.6230   -9.2138 N   0  0  0  0  0  0  0  0  0  0  0  0
   -3.3312   -5.8725   -9.7220 C   0  0  0  0  0  0  0  0  0  0  0  0
   -4.4313   -6.5414  -10.2605 C   0  0  0  0  0  0  0  0  0  0  0  0
   -4.2950   -7.8419  -10.6941 C   0  0  0  0  0  0  0  0  0  0  0  0
   -3.0725   -8.4887  -10.5984 C   0  0  0  0  0  0  0  0  0  0  0  0
   -1.9765   -7.8386  -10.0679 C   0  0  0  0  0  0  0  0  0  0  0  0
   -2.0960   -6.5307   -9.6271 C   0  0  0  0  0  0  0  0  0  0  0  0
   -1.2337   -5.6466   -9.0745 O   0  0  0  0  0  0  0  0  0  0  0  0
    0.1618   -3.6921   -6.8630 H   0  0  0  0  0  0  0  0  0  0  0  0
    0.6258   -4.0236   -8.5491 H   0  0  0  0  0  0  0  0  0  0  0  0
    0.4558   -2.3434   -7.9868 H   0  0  0  0  0  0  0  0  0  0  0  0
   -2.9568   -2.1420   -8.8344 H   0  0  0  0  0  0  0  0  0  0  0  0
   -1.5550   -1.2874   -8.1469 H   0  0  0  0  0  0  0  0  0  0  0  0
   -3.3696   -3.1762   -6.5822 H   0  0  0  0  0  0  0  0  0  0  0  0
   -3.5044   -1.4014   -6.5661 H   0  0  0  0  0  0  0  0  0  0  0  0
   -0.2198   -2.0709   -3.6008 H   0  0  0  0  0  0  0  0  0  0  0  0
   -0.9573   -2.1494   -1.2538 H   0  0  0  0  0  0  0  0  0  0  0  0
   -5.0151   -2.4564   -2.5314 H   0  0  0  0  0  0  0  0  0  0  0  0
   -4.2864   -2.3695   -4.8810 H   0  0  0  0  0  0  0  0  0  0  0  0
   -2.7026   -2.8113    0.2957 H   0  0  0  0  0  0  0  0  0  0  0  0
   -4.3963   -2.9351   -0.2375 H   0  0  0  0  0  0  0  0  0  0  0  0
   -1.6387   -0.6443    0.2733 H   0  0  0  0  0  0  0  0  0  0  0  0
   -4.6405    1.3482    0.1887 H   0  0  0  0  0  0  0  0  0  0  0  0
   -4.6722    3.7964    0.0056 H   0  0  0  0  0  0  0  0  0  0  0  0
   -0.4125    3.8802   -0.1862 H   0  0  0  0  0  0  0  0  0  0  0  0
   -0.9983    1.5436    2.4911 H   0  0  0  0  0  0  0  0  0  0  0  0
   -0.0777    0.6419    4.5859 H   0  0  0  0  0  0  0  0  0  0  0  0
    1.9772   -0.7103    4.5507 H   0  0  0  0  0  0  0  0  0  0  0  0
    3.1176   -1.1781    2.4217 H   0  0  0  0  0  0  0  0  0  0  0  0
    2.2093   -0.2938    0.3142 H   0  0  0  0  0  0  0  0  0  0  0  0
   -5.3855   -6.0414  -10.3372 H   0  0  0  0  0  0  0  0  0  0  0  0
   -5.1455   -8.3605  -11.1113 H   0  0  0  0  0  0  0  0  0  0  0  0
   -2.9770   -9.5084  -10.9411 H   0  0  0  0  0  0  0  0  0  0  0  0
   -1.0274   -8.3489   -9.9962 H   0  0  0  0  0  0  0  0  0  0  0  0
   -5.4625   -1.6233    1.8142 O   0  5  0  0  0  0  0  0  0  0  0  0
  1  2  1  0  0  0  0
  1 42  1  0  0  0  0
  1 43  1  0  0  0  0
  1 44  1  0  0  0  0
  2  3  1  0  0  0  0
  2 33  1  0  0  0  0
  3  4  1  0  0  0  0
  3 45  1  0  0  0  0
  3 46  1  0  0  0  0
  4  5  1  0  0  0  0
  4 47  1  0  0  0  0
  4 48  1  0  0  0  0
  5  6  1  0  0  0  0
  6 11  2  0  0  0  0
  6  7  1  0  0  0  0
  7  8  2  0  0  0  0
  7 49  1  0  0  0  0
  8  9  1  0  0  0  0
  8 50  1  0  0  0  0
  9 10  2  0  0  0  0
  9 12  1  0  0  0  0
 10 11  1  0  0  0  0
 10 51  1  0  0  0  0
 11 52  1  0  0  0  0
 12 13  1  0  0  0  0
 12 53  1  0  0  0  0
 12 54  1  0  0  0  0
 13 14  1  0  0  0  0
 13 15  1  0  0  0  0
 13 17  1  0  0  0  0
 15 16  2  0  0  0  0
 15 68  1  0  0  0  0
 17 18  1  0  0  0  0
 17 55  1  0  0  0  0
 18 23  2  0  0  0  0
 18 19  1  0  0  0  0
 19 20  2  0  0  0  0
 19 56  1  0  0  0  0
 20 21  1  0  0  0  0
 20 57  1  0  0  0  0
 21 22  2  0  0  0  0
 21 32  1  0  0  0  0
 22 23  1  0  0  0  0
 22 58  1  0  0  0  0
 23 24  1  0  0  0  0
 24 25  2  0  0  0  0
 24 26  1  0  0  0  0
 26 31  2  0  0  0  0
 26 27  1  0  0  0  0
 27 28  2  0  0  0  0
 27 59  1  0  0  0  0
 28 29  1  0  0  0  0
 28 60  1  0  0  0  0
 29 30  2  0  0  0  0
 29 61  1  0  0  0  0
 30 31  1  0  0  0  0
 30 62  1  0  0  0  0
 31 63  1  0  0  0  0
 33 41  1  0  0  0  0
 33 34  2  0  0  0  0
 34 35  1  0  0  0  0
 35 40  2  0  0  0  0
 35 36  1  0  0  0  0
 36 37  2  0  0  0  0
 36 64  1  0  0  0  0
 37 38  1  0  0  0  0
 37 65  1  0  0  0  0
 38 39  2  0  0  0  0
 38 66  1  0  0  0  0
 39 40  1  0  0  0  0
 39 67  1  0  0  0  0
 40 41  1  0  0  0  0
M  CHG  1  68  -1
M  END
$$$$
ZINC03834053
  -OEChem-08230709403D

 65 69  0     1  0  0  0  0  0999 V2000
    2.3636   -0.1890   -8.8794 C   0  0  0  0  0  0  0  0  0  0  0  0
    1.5588   -1.3488   -8.4877 N   0  0  0  0  0  0  0  0  0  0  0  0
    0.2644   -1.1538   -7.8300 C   0  0  0  0  0  0  0  0  0  0  0  0
    0.4650   -1.1032   -6.3141 C   0  0  0  0  0  0  0  0  0  0  0  0
    1.2391    0.0489   -5.9742 O   0  0  0  0  0  0  0  0  0  0  0  0
    1.5099    0.2436   -4.6568 C   0  0  0  0  0  0  0  0  0  0  0  0
    2.2564    1.3420   -4.2559 C   0  0  0  0  0  0  0  0  0  0  0  0
    2.5307    1.5375   -2.9161 C   0  0  0  0  0  0  0  0  0  0  0  0
    2.0614    0.6398   -1.9750 C   0  0  0  0  0  0  0  0  0  0  0  0
    1.3219   -0.4588   -2.3726 C   0  0  0  0  0  0  0  0  0  0  0  0
    1.0405   -0.6559   -3.7106 C   0  0  0  0  0  0  0  0  0  0  0  0
    2.3616    0.8557   -0.5141 C   0  0  0  0  0  0  0  0  0  0  0  0
    1.2531    1.7023    0.1147 C   0  0  2  0  0  0  0  0  0  0  0  0
    1.1406    2.6293   -0.4476 H   0  0  0  0  0  0  0  0  0  0  0  0
    1.6135    2.0215    1.5427 C   0  0  0  0  0  0  0  0  0  0  0  0
    0.8914    1.6629    2.4426 O   0  0  0  0  0  0  0  0  0  0  0  0
   -0.0076    0.9566    0.0842 N   0  0  0  0  0  0  0  0  0  0  0  0
   -1.2192    1.6389    0.0916 C   0  0  0  0  0  0  0  0  0  0  0  0
   -1.2745    3.0162    0.1324 C   0  0  0  0  0  0  0  0  0  0  0  0
   -2.4837    3.6314    0.1379 C   0  0  0  0  0  0  0  0  0  0  0  0
   -3.6079    2.3134    0.0862 S   0  0  0  0  0  0  0  0  0  0  0  0
   -2.4426    0.9631    0.0522 C   0  0  0  0  0  0  0  0  0  0  0  0
   -2.6911   -0.4262    0.0003 C   0  0  0  0  0  0  0  0  0  0  0  0
   -1.7647   -1.2061   -0.1356 O   0  0  0  0  0  0  0  0  0  0  0  0
   -4.0764   -0.9348    0.1109 C   0  0  0  0  0  0  0  0  0  0  0  0
   -4.4066   -2.1872   -0.4087 C   0  0  0  0  0  0  0  0  0  0  0  0
   -5.6988   -2.6577   -0.2979 C   0  0  0  0  0  0  0  0  0  0  0  0
   -6.6686   -1.8864    0.3177 C   0  0  0  0  0  0  0  0  0  0  0  0
   -6.3489   -0.6416    0.8302 C   0  0  0  0  0  0  0  0  0  0  0  0
   -5.0593   -0.1617    0.7303 C   0  0  0  0  0  0  0  0  0  0  0  0
    2.0189   -2.6219   -8.7377 C   0  0  0  0  0  0  0  0  0  0  0  0
    1.3849   -3.7231   -8.4253 N   0  0  0  0  0  0  0  0  0  0  0  0
    2.1347   -4.7868   -8.8254 C   0  0  0  0  0  0  0  0  0  0  0  0
    1.9602   -6.1695   -8.7552 C   0  0  0  0  0  0  0  0  0  0  0  0
    2.9317   -7.0072   -9.2577 C   0  0  0  0  0  0  0  0  0  0  0  0
    4.0802   -6.4843   -9.8319 C   0  0  0  0  0  0  0  0  0  0  0  0
    4.2652   -5.1185   -9.9076 C   0  0  0  0  0  0  0  0  0  0  0  0
    3.2983   -4.2619   -9.4072 C   0  0  0  0  0  0  0  0  0  0  0  0
    3.1881   -2.9154   -9.3333 O   0  0  0  0  0  0  0  0  0  0  0  0
    3.0271    0.0863   -8.0596 H   0  0  0  0  0  0  0  0  0  0  0  0
    2.9569   -0.4388   -9.7589 H   0  0  0  0  0  0  0  0  0  0  0  0
    1.7054    0.6484   -9.1110 H   0  0  0  0  0  0  0  0  0  0  0  0
   -0.3992   -1.9813   -8.0813 H   0  0  0  0  0  0  0  0  0  0  0  0
   -0.1782   -0.2173   -8.1694 H   0  0  0  0  0  0  0  0  0  0  0  0
    0.9879   -2.0018   -5.9866 H   0  0  0  0  0  0  0  0  0  0  0  0
   -0.5054   -1.0474   -5.8208 H   0  0  0  0  0  0  0  0  0  0  0  0
    2.6226    2.0439   -4.9905 H   0  0  0  0  0  0  0  0  0  0  0  0
    3.1118    2.3925   -2.6034 H   0  0  0  0  0  0  0  0  0  0  0  0
    0.9605   -1.1611   -1.6361 H   0  0  0  0  0  0  0  0  0  0  0  0
    0.4594   -1.5120   -4.0203 H   0  0  0  0  0  0  0  0  0  0  0  0
    3.3158    1.3726   -0.4118 H   0  0  0  0  0  0  0  0  0  0  0  0
    2.4143   -0.1080   -0.0077 H   0  0  0  0  0  0  0  0  0  0  0  0
    0.0029   -0.0128    0.0548 H   0  0  0  0  0  0  0  0  0  0  0  0
   -0.3654    3.5986    0.1601 H   0  0  0  0  0  0  0  0  0  0  0  0
   -2.6953    4.6901    0.1675 H   0  0  0  0  0  0  0  0  0  0  0  0
   -3.6515   -2.7883   -0.8933 H   0  0  0  0  0  0  0  0  0  0  0  0
   -5.9549   -3.6283   -0.6963 H   0  0  0  0  0  0  0  0  0  0  0  0
   -7.6797   -2.2574    0.3981 H   0  0  0  0  0  0  0  0  0  0  0  0
   -7.1105   -0.0443    1.3093 H   0  0  0  0  0  0  0  0  0  0  0  0
   -4.8111    0.8104    1.1301 H   0  0  0  0  0  0  0  0  0  0  0  0
    1.0670   -6.5813   -8.3091 H   0  0  0  0  0  0  0  0  0  0  0  0
    2.7977   -8.0775   -9.2043 H   0  0  0  0  0  0  0  0  0  0  0  0
    4.8355   -7.1502  -10.2223 H   0  0  0  0  0  0  0  0  0  0  0  0
    5.1625   -4.7183  -10.3559 H   0  0  0  0  0  0  0  0  0  0  0  0
    2.7367    2.7041    1.8149 O   0  5  0  0  0  0  0  0  0  0  0  0
  1  2  1  0  0  0  0
  1 40  1  0  0  0  0
  1 41  1  0  0  0  0
  1 42  1  0  0  0  0
  2  3  1  0  0  0  0
  2 31  1  0  0  0  0
  3  4  1  0  0  0  0
  3 43  1  0  0  0  0
  3 44  1  0  0  0  0
  4  5  1  0  0  0  0
  4 45  1  0  0  0  0
  4 46  1  0  0  0  0
  5  6  1  0  0  0  0
  6 11  2  0  0  0  0
  6  7  1  0  0  0  0
  7  8  2  0  0  0  0
  7 47  1  0  0  0  0
  8  9  1  0  0  0  0
  8 48  1  0  0  0  0
  9 10  2  0  0  0  0
  9 12  1  0  0  0  0
 10 11  1  0  0  0  0
 10 49  1  0  0  0  0
 11 50  1  0  0  0  0
 12 13  1  0  0  0  0
 12 51  1  0  0  0  0
 12 52  1  0  0  0  0
 13 14  1  0  0  0  0
 13 15  1  0  0  0  0
 13 17  1  0  0  0  0
 15 16  2  0  0  0  0
 15 65  1  0  0  0  0
 17 18  1  0  0  0  0
 17 53  1  0  0  0  0
 18 22  2  0  0  0  0
 18 19  1  0  0  0  0
 19 20  2  0  0  0  0
 19 54  1  0  0  0  0
 20 21  1  0  0  0  0
 20 55  1  0  0  0  0
 21 22  1  0  0  0  0
 22 23  1  0  0  0  0
 23 24  2  0  0  0  0
 23 25  1  0  0  0  0
 25 30  2  0  0  0  0
 25 26  1  0  0  0  0
 26 27  2  0  0  0  0
 26 56  1  0  0  0  0
 27 28  1  0  0  0  0
 27 57  1  0  0  0  0
 28 29  2  0  0  0  0
 28 58  1  0  0  0  0
 29 30  1  0  0  0  0
 29 59  1  0  0  0  0
 30 60  1  0  0  0  0
 31 39  1  0  0  0  0
 31 32  2  0  0  0  0
 32 33  1  0  0  0  0
 33 38  2  0  0  0  0
 33 34  1  0  0  0  0
 34 35  2  0  0  0  0
 34 61  1  0  0  0  0
 35 36  1  0  0  0  0
 35 62  1  0  0  0  0
 36 37  2  0  0  0  0
 36 63  1  0  0  0  0
 37 38  1  0  0  0  0
 37 64  1  0  0  0  0
 38 39  1  0  0  0  0
M  CHG  1  65  -1
M  END
$$$$
ZINC03834054
  -OEChem-08230709403D

 52 54  0     0  0  0  0  0  0999 V2000
   -4.4894    2.4178    3.4463 C   0  0  0  0  0  0  0  0  0  0  0  0
   -3.2294    1.5511    3.4932 C   0  0  0  0  0  0  0  0  0  0  0  0
   -1.9919    2.4507    3.5080 C   0  0  0  0  0  0  0  0  0  0  0  0
   -0.7508    1.5971    3.5542 C   0  0  0  0  0  0  0  0  0  0  0  0
   -0.1491    1.1823    2.3790 C   0  0  0  0  0  0  0  0  0  0  0  0
    0.9954    0.3892    2.4130 C   0  0  0  0  0  0  0  0  0  0  0  0
    1.5450    0.0185    3.6065 C   0  0  0  0  0  0  0  0  0  0  0  0
    0.9513    0.4282    4.8032 C   0  0  0  0  0  0  0  0  0  0  0  0
   -0.2069    1.2243    4.7753 C   0  0  0  0  0  0  0  0  0  0  0  0
   -0.5540    1.4641    6.0562 O   0  0  0  0  0  0  0  0  0  0  0  0
    0.3700    0.8298    6.9176 N   0  0  0  0  0  0  0  0  0  0  0  0
    1.2697    0.2107    6.2165 C   0  0  0  0  0  0  0  0  0  0  0  0
    2.4292   -0.5858    6.7571 C   0  0  0  0  0  0  0  0  0  0  0  0
    2.3347   -0.6596    8.1509 F   0  0  0  0  0  0  0  0  0  0  0  0
    2.3996   -1.8766    6.2186 F   0  0  0  0  0  0  0  0  0  0  0  0
    3.6297    0.0396    6.4036 F   0  0  0  0  0  0  0  0  0  0  0  0
   -0.6816    1.5467    1.1837 O   0  0  0  0  0  0  0  0  0  0  0  0
   -0.0127    1.0858    0.0080 C   0  0  0  0  0  0  0  0  0  0  0  0
   -0.7527    1.5927   -1.2315 C   0  0  0  0  0  0  0  0  0  0  0  0
   -0.0366    1.0992   -2.4903 C   0  0  0  0  0  0  0  0  0  0  0  0
   -0.9139    1.7001   -3.9599 S   0  0  0  0  0  0  0  0  0  0  0  0
    0.0210    1.0563   -5.3075 C   0  0  0  0  0  0  0  0  0  0  0  0
    1.1490    0.2818   -5.0656 C   0  0  0  0  0  0  0  0  0  0  0  0
    1.8792   -0.2216   -6.1241 C   0  0  0  0  0  0  0  0  0  0  0  0
    1.4891    0.0437   -7.4242 C   0  0  0  0  0  0  0  0  0  0  0  0
    0.3675    0.8144   -7.6698 C   0  0  0  0  0  0  0  0  0  0  0  0
   -0.3713    1.3172   -6.6157 C   0  0  0  0  0  0  0  0  0  0  0  0
   -1.7837    2.2783   -6.9244 Cl  0  0  0  0  0  0  0  0  0  0  0  0
    2.2887   -0.5082   -8.5762 C   0  0  0  0  0  0  0  0  0  0  0  0
    1.7506   -1.8632   -8.9578 C   0  0  0  0  0  0  0  0  0  0  0  0
    0.8139   -2.3326   -8.3559 O   0  0  0  0  0  0  0  0  0  0  0  0
   -5.3710    1.7769    3.4358 H   0  0  0  0  0  0  0  0  0  0  0  0
   -4.5196    3.0628    4.3245 H   0  0  0  0  0  0  0  0  0  0  0  0
   -4.4752    3.0311    2.5454 H   0  0  0  0  0  0  0  0  0  0  0  0
   -3.1992    0.9061    2.6151 H   0  0  0  0  0  0  0  0  0  0  0  0
   -3.2436    0.9378    4.3942 H   0  0  0  0  0  0  0  0  0  0  0  0
   -2.0221    3.0957    4.3861 H   0  0  0  0  0  0  0  0  0  0  0  0
   -1.9777    3.0640    2.6070 H   0  0  0  0  0  0  0  0  0  0  0  0
    1.4531    0.0682    1.4890 H   0  0  0  0  0  0  0  0  0  0  0  0
    2.4347   -0.5935    3.6256 H   0  0  0  0  0  0  0  0  0  0  0  0
    0.0021   -0.0041    0.0020 H   0  0  0  0  0  0  0  0  0  0  0  0
    1.0099    1.4631    0.0003 H   0  0  0  0  0  0  0  0  0  0  0  0
   -1.7753    1.2154   -1.2238 H   0  0  0  0  0  0  0  0  0  0  0  0
   -0.7675    2.6825   -1.2255 H   0  0  0  0  0  0  0  0  0  0  0  0
    0.9860    1.4765   -2.4981 H   0  0  0  0  0  0  0  0  0  0  0  0
   -0.0218    0.0093   -2.4963 H   0  0  0  0  0  0  0  0  0  0  0  0
    1.4541    0.0734   -4.0508 H   0  0  0  0  0  0  0  0  0  0  0  0
    2.7559   -0.8236   -5.9364 H   0  0  0  0  0  0  0  0  0  0  0  0
    0.0658    1.0195   -8.6863 H   0  0  0  0  0  0  0  0  0  0  0  0
    2.2112    0.1667   -9.4287 H   0  0  0  0  0  0  0  0  0  0  0  0
    3.3338   -0.6022   -8.2811 H   0  0  0  0  0  0  0  0  0  0  0  0
    2.3119   -2.5486   -9.9661 O   0  5  0  0  0  0  0  0  0  0  0  0
  1  2  1  0  0  0  0
  1 32  1  0  0  0  0
  1 33  1  0  0  0  0
  1 34  1  0  0  0  0
  2  3  1  0  0  0  0
  2 35  1  0  0  0  0
  2 36  1  0  0  0  0
  3  4  1  0  0  0  0
  3 37  1  0  0  0  0
  3 38  1  0  0  0  0
  4  9  2  0  0  0  0
  4  5  1  0  0  0  0
  5  6  2  0  0  0  0
  5 17  1  0  0  0  0
  6  7  1  0  0  0  0
  6 39  1  0  0  0  0
  7  8  2  0  0  0  0
  7 40  1  0  0  0  0
  8 12  1  0  0  0  0
  8  9  1  0  0  0  0
  9 10  1  0  0  0  0
 10 11  1  0  0  0  0
 11 12  2  0  0  0  0
 12 13  1  0  0  0  0
 13 14  1  0  0  0  0
 13 15  1  0  0  0  0
 13 16  1  0  0  0  0
 17 18  1  0  0  0  0
 18 19  1  0  0  0  0
 18 41  1  0  0  0  0
 18 42  1  0  0  0  0
 19 20  1  0  0  0  0
 19 43  1  0  0  0  0
 19 44  1  0  0  0  0
 20 21  1  0  0  0  0
 20 45  1  0  0  0  0
 20 46  1  0  0  0  0
 21 22  1  0  0  0  0
 22 27  2  0  0  0  0
 22 23  1  0  0  0  0
 23 24  2  0  0  0  0
 23 47  1  0  0  0  0
 24 25  1  0  0  0  0
 24 48  1  0  0  0  0
 25 26  2  0  0  0  0
 25 29  1  0  0  0  0
 26 27  1  0  0  0  0
 26 49  1  0  0  0  0
 27 28  1  0  0  0  0
 29 30  1  0  0  0  0
 29 50  1  0  0  0  0
 29 51  1  0  0  0  0
 30 31  2  0  0  0  0
 30 52  1  0  0  0  0
M  CHG  1  52  -1
M  END
$$$$
ZINC03834055
  -OEChem-08230709403D

 55 57  0     0  0  0  0  0  0999 V2000
   -5.0293    4.0102    5.8492 C   0  0  0  0  0  0  0  0  0  0  0  0
   -4.6387    3.1281    4.6617 C   0  0  0  0  0  0  0  0  0  0  0  0
   -3.5304    2.1627    5.0863 C   0  0  0  0  0  0  0  0  0  0  0  0
   -3.1456    1.2938    3.9167 C   0  0  0  0  0  0  0  0  0  0  0  0
   -3.7936    0.0898    3.7032 C   0  0  0  0  0  0  0  0  0  0  0  0
   -3.4446   -0.7186    2.6239 C   0  0  0  0  0  0  0  0  0  0  0  0
   -2.4575   -0.3347    1.7626 C   0  0  0  0  0  0  0  0  0  0  0  0
   -1.7925    0.8780    1.9623 C   0  0  0  0  0  0  0  0  0  0  0  0
   -2.1405    1.6984    3.0494 C   0  0  0  0  0  0  0  0  0  0  0  0
   -1.3472    2.7874    2.9940 O   0  0  0  0  0  0  0  0  0  0  0  0
   -0.4814    2.6792    1.8819 N   0  0  0  0  0  0  0  0  0  0  0  0
   -0.7181    1.5718    1.2479 C   0  0  0  0  0  0  0  0  0  0  0  0
   -0.0127    1.0858    0.0080 C   0  0  0  0  0  0  0  0  0  0  0  0
   -0.7527    1.5927   -1.2315 C   0  0  0  0  0  0  0  0  0  0  0  0
   -4.7773   -0.3063    4.5519 O   0  0  0  0  0  0  0  0  0  0  0  0
   -5.4066   -1.5593    4.2761 C   0  0  0  0  0  0  0  0  0  0  0  0
   -6.4801   -1.8341    5.3311 C   0  0  0  0  0  0  0  0  0  0  0  0
   -7.1538   -3.1756    5.0358 C   0  0  0  0  0  0  0  0  0  0  0  0
   -8.4265   -3.5014    6.2867 S   0  0  0  0  0  0  0  0  0  0  0  0
   -9.1001   -5.0594    5.8137 C   0  0  0  0  0  0  0  0  0  0  0  0
  -10.1857   -5.1151    4.9472 C   0  0  0  0  0  0  0  0  0  0  0  0
  -10.7078   -6.3393    4.5745 C   0  0  0  0  0  0  0  0  0  0  0  0
  -10.1586   -7.5074    5.0709 C   0  0  0  0  0  0  0  0  0  0  0  0
   -9.0819   -7.4559    5.9373 C   0  0  0  0  0  0  0  0  0  0  0  0
   -8.5508   -6.2358    6.3106 C   0  0  0  0  0  0  0  0  0  0  0  0
   -7.1992   -6.1725    7.3982 Cl  0  0  0  0  0  0  0  0  0  0  0  0
  -10.7353   -8.8399    4.6672 C   0  0  0  0  0  0  0  0  0  0  0  0
  -11.8191   -9.2330    5.6377 C   0  0  0  0  0  0  0  0  0  0  0  0
  -12.0950   -8.5058    6.5623 O   0  0  0  0  0  0  0  0  0  0  0  0
  -10.8805   -3.6493    4.3290 Cl  0  0  0  0  0  0  0  0  0  0  0  0
   -5.8190    4.6980    5.5467 H   0  0  0  0  0  0  0  0  0  0  0  0
   -5.3870    3.3829    6.6657 H   0  0  0  0  0  0  0  0  0  0  0  0
   -4.1603    4.5782    6.1812 H   0  0  0  0  0  0  0  0  0  0  0  0
   -4.2811    3.7554    3.8452 H   0  0  0  0  0  0  0  0  0  0  0  0
   -5.5078    2.5601    4.3296 H   0  0  0  0  0  0  0  0  0  0  0  0
   -3.8880    1.5354    5.9028 H   0  0  0  0  0  0  0  0  0  0  0  0
   -2.6613    2.7307    5.4184 H   0  0  0  0  0  0  0  0  0  0  0  0
   -3.9580   -1.6559    2.4678 H   0  0  0  0  0  0  0  0  0  0  0  0
   -2.1919   -0.9663    0.9278 H   0  0  0  0  0  0  0  0  0  0  0  0
    0.0021   -0.0041    0.0020 H   0  0  0  0  0  0  0  0  0  0  0  0
    1.0099    1.4631    0.0003 H   0  0  0  0  0  0  0  0  0  0  0  0
   -0.7675    2.6825   -1.2255 H   0  0  0  0  0  0  0  0  0  0  0  0
   -0.2425    1.2411   -2.1283 H   0  0  0  0  0  0  0  0  0  0  0  0
   -1.7753    1.2154   -1.2238 H   0  0  0  0  0  0  0  0  0  0  0  0
   -5.8678   -1.5247    3.2890 H   0  0  0  0  0  0  0  0  0  0  0  0
   -4.6608   -2.3537    4.3011 H   0  0  0  0  0  0  0  0  0  0  0  0
   -6.0189   -1.8686    6.3182 H   0  0  0  0  0  0  0  0  0  0  0  0
   -7.2259   -1.0396    5.3061 H   0  0  0  0  0  0  0  0  0  0  0  0
   -7.6150   -3.1411    4.0487 H   0  0  0  0  0  0  0  0  0  0  0  0
   -6.4080   -3.9701    5.0608 H   0  0  0  0  0  0  0  0  0  0  0  0
  -11.5487   -6.3836    3.8981 H   0  0  0  0  0  0  0  0  0  0  0  0
   -8.6558   -8.3703    6.3229 H   0  0  0  0  0  0  0  0  0  0  0  0
  -11.1554   -8.7651    3.6642 H   0  0  0  0  0  0  0  0  0  0  0  0
   -9.9484   -9.5941    4.6762 H   0  0  0  0  0  0  0  0  0  0  0  0
  -12.4781  -10.3910    5.4749 O   0  5  0  0  0  0  0  0  0  0  0  0
  1  2  1  0  0  0  0
  1 31  1  0  0  0  0
  1 32  1  0  0  0  0
  1 33  1  0  0  0  0
  2  3  1  0  0  0  0
  2 34  1  0  0  0  0
  2 35  1  0  0  0  0
  3  4  1  0  0  0  0
  3 36  1  0  0  0  0
  3 37  1  0  0  0  0
  4  9  2  0  0  0  0
  4  5  1  0  0  0  0
  5  6  2  0  0  0  0
  5 15  1  0  0  0  0
  6  7  1  0  0  0  0
  6 38  1  0  0  0  0
  7  8  2  0  0  0  0
  7 39  1  0  0  0  0
  8 12  1  0  0  0  0
  8  9  1  0  0  0  0
  9 10  1  0  0  0  0
 10 11  1  0  0  0  0
 11 12  2  0  0  0  0
 12 13  1  0  0  0  0
 13 14  1  0  0  0  0
 13 40  1  0  0  0  0
 13 41  1  0  0  0  0
 14 42  1  0  0  0  0
 14 43  1  0  0  0  0
 14 44  1  0  0  0  0
 15 16  1  0  0  0  0
 16 17  1  0  0  0  0
 16 45  1  0  0  0  0
 16 46  1  0  0  0  0
 17 18  1  0  0  0  0
 17 47  1  0  0  0  0
 17 48  1  0  0  0  0
 18 19  1  0  0  0  0
 18 49  1  0  0  0  0
 18 50  1  0  0  0  0
 19 20  1  0  0  0  0
 20 25  2  0  0  0  0
 20 21  1  0  0  0  0
 21 22  2  0  0  0  0
 21 30  1  0  0  0  0
 22 23  1  0  0  0  0
 22 51  1  0  0  0  0
 23 24  2  0  0  0  0
 23 27  1  0  0  0  0
 24 25  1  0  0  0  0
 24 52  1  0  0  0  0
 25 26  1  0  0  0  0
 27 28  1  0  0  0  0
 27 53  1  0  0  0  0
 27 54  1  0  0  0  0
 28 29  2  0  0  0  0
 28 55  1  0  0  0  0
M  CHG  1  55  -1
M  END
$$$$
ZINC03834056
  -OEChem-08230709403D

 65 69  0     1  0  0  0  0  0999 V2000
   -0.4393   -7.3822    0.7408 C   0  0  0  0  0  0  0  0  0  0  0  0
   -0.3946   -7.2533   -0.7179 N   0  0  0  0  0  0  0  0  0  0  0  0
    0.7903   -6.6870   -1.3672 C   0  0  0  0  0  0  0  0  0  0  0  0
    0.6266   -5.1711   -1.4944 C   0  0  0  0  0  0  0  0  0  0  0  0
    0.5928   -4.5847   -0.1917 O   0  0  0  0  0  0  0  0  0  0  0  0
    0.4510   -3.2347   -0.1264 C   0  0  0  0  0  0  0  0  0  0  0  0
    0.4105   -2.5992    1.1062 C   0  0  0  0  0  0  0  0  0  0  0  0
    0.2658   -1.2268    1.1700 C   0  0  0  0  0  0  0  0  0  0  0  0
    0.1618   -0.4866    0.0068 C   0  0  0  0  0  0  0  0  0  0  0  0
    0.1963   -1.1182   -1.2227 C   0  0  0  0  0  0  0  0  0  0  0  0
    0.3460   -2.4898   -1.2920 C   0  0  0  0  0  0  0  0  0  0  0  0
    0.0045    1.0104    0.0793 C   0  0  0  0  0  0  0  0  0  0  0  0
    1.3854    1.6692    0.0725 C   0  0  2  0  0  0  0  0  0  0  0  0
    1.9891    1.2560    0.8805 H   0  0  0  0  0  0  0  0  0  0  0  0
    1.2337    3.1557    0.2684 C   0  0  0  0  0  0  0  0  0  0  0  0
    1.6344    3.9204   -0.5769 O   0  0  0  0  0  0  0  0  0  0  0  0
    2.0437    1.4104   -1.2104 N   0  0  0  0  0  0  0  0  0  0  0  0
    3.4210    1.4284   -1.2953 C   0  0  0  0  0  0  0  0  0  0  0  0
    4.2235    1.2030   -2.4136 C   0  0  0  0  0  0  0  0  0  0  0  0
    5.6517    1.2894   -2.2121 C   0  0  0  0  0  0  0  0  0  0  0  0
    6.0813    1.5679   -0.9698 C   0  0  0  0  0  0  0  0  0  0  0  0
    4.5727    1.7290   -0.0378 S   0  0  0  0  0  0  0  0  0  0  0  0
    3.6488    0.8988   -3.7237 C   0  0  0  0  0  0  0  0  0  0  0  0
    3.6803   -0.2404   -4.1526 O   0  0  0  0  0  0  0  0  0  0  0  0
    3.0293    1.9750   -4.5276 C   0  0  0  0  0  0  0  0  0  0  0  0
    3.0866    3.2989   -4.0891 C   0  0  0  0  0  0  0  0  0  0  0  0
    2.5115    4.2985   -4.8462 C   0  0  0  0  0  0  0  0  0  0  0  0
    1.8694    3.9897   -6.0323 C   0  0  0  0  0  0  0  0  0  0  0  0
    1.8045    2.6787   -6.4700 C   0  0  0  0  0  0  0  0  0  0  0  0
    2.3801    1.6703   -5.7250 C   0  0  0  0  0  0  0  0  0  0  0  0
   -1.4658   -7.6643   -1.4783 C   0  0  0  0  0  0  0  0  0  0  0  0
   -1.5320   -7.5892   -2.7830 N   0  0  0  0  0  0  0  0  0  0  0  0
   -2.7316   -8.0891   -3.1887 C   0  0  0  0  0  0  0  0  0  0  0  0
   -3.3329   -8.2578   -4.4366 C   0  0  0  0  0  0  0  0  0  0  0  0
   -4.5955   -8.8029   -4.5186 C   0  0  0  0  0  0  0  0  0  0  0  0
   -5.2709   -9.1840   -3.3694 C   0  0  0  0  0  0  0  0  0  0  0  0
   -4.6875   -9.0226   -2.1289 C   0  0  0  0  0  0  0  0  0  0  0  0
   -3.4185   -8.4761   -2.0284 C   0  0  0  0  0  0  0  0  0  0  0  0
   -2.5994   -8.1962   -0.9885 O   0  0  0  0  0  0  0  0  0  0  0  0
   -0.8608   -6.4746    1.1729 H   0  0  0  0  0  0  0  0  0  0  0  0
   -1.0606   -8.2359    1.0112 H   0  0  0  0  0  0  0  0  0  0  0  0
    0.5703   -7.5318    1.1234 H   0  0  0  0  0  0  0  0  0  0  0  0
    0.9052   -7.1245   -2.3589 H   0  0  0  0  0  0  0  0  0  0  0  0
    1.6736   -6.9081   -0.7680 H   0  0  0  0  0  0  0  0  0  0  0  0
   -0.3036   -4.9487   -2.0173 H   0  0  0  0  0  0  0  0  0  0  0  0
    1.4660   -4.7609   -2.0559 H   0  0  0  0  0  0  0  0  0  0  0  0
    0.4923   -3.1768    2.0150 H   0  0  0  0  0  0  0  0  0  0  0  0
    0.2341   -0.7316    2.1292 H   0  0  0  0  0  0  0  0  0  0  0  0
    0.1101   -0.5383   -2.1298 H   0  0  0  0  0  0  0  0  0  0  0  0
    0.3770   -2.9822   -2.2527 H   0  0  0  0  0  0  0  0  0  0  0  0
   -0.5679    1.3577   -0.7809 H   0  0  0  0  0  0  0  0  0  0  0  0
   -0.5205    1.2766    0.9966 H   0  0  0  0  0  0  0  0  0  0  0  0
    1.5115    1.2262   -2.0002 H   0  0  0  0  0  0  0  0  0  0  0  0
    6.3451    1.1323   -3.0251 H   0  0  0  0  0  0  0  0  0  0  0  0
    7.0981    1.6696   -0.6203 H   0  0  0  0  0  0  0  0  0  0  0  0
    3.5836    3.5407   -3.1613 H   0  0  0  0  0  0  0  0  0  0  0  0
    2.5586    5.3238   -4.5101 H   0  0  0  0  0  0  0  0  0  0  0  0
    1.4165    4.7753   -6.6189 H   0  0  0  0  0  0  0  0  0  0  0  0
    1.3018    2.4442   -7.3967 H   0  0  0  0  0  0  0  0  0  0  0  0
    2.3282    0.6473   -6.0673 H   0  0  0  0  0  0  0  0  0  0  0  0
   -2.8104   -7.9627   -5.3345 H   0  0  0  0  0  0  0  0  0  0  0  0
   -5.0618   -8.9343   -5.4839 H   0  0  0  0  0  0  0  0  0  0  0  0
   -6.2604   -9.6099   -3.4453 H   0  0  0  0  0  0  0  0  0  0  0  0
   -5.2198   -9.3215   -1.2379 H   0  0  0  0  0  0  0  0  0  0  0  0
    0.6535    3.6302    1.3819 O   0  5  0  0  0  0  0  0  0  0  0  0
  1  2  1  0  0  0  0
  1 40  1  0  0  0  0
  1 41  1  0  0  0  0
  1 42  1  0  0  0  0
  2  3  1  0  0  0  0
  2 31  1  0  0  0  0
  3  4  1  0  0  0  0
  3 43  1  0  0  0  0
  3 44  1  0  0  0  0
  4  5  1  0  0  0  0
  4 45  1  0  0  0  0
  4 46  1  0  0  0  0
  5  6  1  0  0  0  0
  6 11  2  0  0  0  0
  6  7  1  0  0  0  0
  7  8  2  0  0  0  0
  7 47  1  0  0  0  0
  8  9  1  0  0  0  0
  8 48  1  0  0  0  0
  9 10  2  0  0  0  0
  9 12  1  0  0  0  0
 10 11  1  0  0  0  0
 10 49  1  0  0  0  0
 11 50  1  0  0  0  0
 12 13  1  0  0  0  0
 12 51  1  0  0  0  0
 12 52  1  0  0  0  0
 13 14  1  0  0  0  0
 13 15  1  0  0  0  0
 13 17  1  0  0  0  0
 15 16  2  0  0  0  0
 15 65  1  0  0  0  0
 17 18  1  0  0  0  0
 17 53  1  0  0  0  0
 18 22  1  0  0  0  0
 18 19  2  0  0  0  0
 19 20  1  0  0  0  0
 19 23  1  0  0  0  0
 20 21  2  0  0  0  0
 20 54  1  0  0  0  0
 21 22  1  0  0  0  0
 21 55  1  0  0  0  0
 23 24  2  0  0  0  0
 23 25  1  0  0  0  0
 25 30  2  0  0  0  0
 25 26  1  0  0  0  0
 26 27  2  0  0  0  0
 26 56  1  0  0  0  0
 27 28  1  0  0  0  0
 27 57  1  0  0  0  0
 28 29  2  0  0  0  0
 28 58  1  0  0  0  0
 29 30  1  0  0  0  0
 29 59  1  0  0  0  0
 30 60  1  0  0  0  0
 31 39  1  0  0  0  0
 31 32  2  0  0  0  0
 32 33  1  0  0  0  0
 33 38  2  0  0  0  0
 33 34  1  0  0  0  0
 34 35  2  0  0  0  0
 34 61  1  0  0  0  0
 35 36  1  0  0  0  0
 35 62  1  0  0  0  0
 36 37  2  0  0  0  0
 36 63  1  0  0  0  0
 37 38  1  0  0  0  0
 37 64  1  0  0  0  0
 38 39  1  0  0  0  0
M  CHG  1  65  -1
M  END
$$$$
ZINC03834057
  -OEChem-08230709403D

 69 73  0     1  0  0  0  0  0999 V2000
    4.2881   -0.1925    8.4491 C   0  0  0  0  0  0  0  0  0  0  0  0
    2.8823    0.1270    8.1885 N   0  0  0  0  0  0  0  0  0  0  0  0
    2.1612   -0.5625    7.1157 C   0  0  0  0  0  0  0  0  0  0  0  0
    2.3156    0.2221    5.8113 C   0  0  0  0  0  0  0  0  0  0  0  0
    3.6872    0.2146    5.4104 O   0  0  0  0  0  0  0  0  0  0  0  0
    3.9980    0.8723    4.2624 C   0  0  0  0  0  0  0  0  0  0  0  0
    3.0025    1.5068    3.5338 C   0  0  0  0  0  0  0  0  0  0  0  0
    3.3221    2.1799    2.3705 C   0  0  0  0  0  0  0  0  0  0  0  0
    4.6309    2.2110    1.9257 C   0  0  0  0  0  0  0  0  0  0  0  0
    5.6240    1.5746    2.6471 C   0  0  0  0  0  0  0  0  0  0  0  0
    5.3106    0.9054    3.8142 C   0  0  0  0  0  0  0  0  0  0  0  0
    4.9756    2.9403    0.6527 C   0  0  0  0  0  0  0  0  0  0  0  0
    5.2852    4.4043    0.9716 C   0  0  1  0  0  0  0  0  0  0  0  0
    6.0592    4.4535    1.7375 H   0  0  0  0  0  0  0  0  0  0  0  0
    5.7754    5.1094   -0.2947 C   0  0  0  0  0  0  0  0  0  0  0  0
    6.1964    6.5161    0.0446 C   0  0  0  0  0  0  0  0  0  0  0  0
    5.3450    7.5721   -0.2061 C   0  0  0  0  0  0  0  0  0  0  0  0
    5.7298    8.8642    0.1053 C   0  0  0  0  0  0  0  0  0  0  0  0
    6.9699    9.1068    0.6701 C   0  0  0  0  0  0  0  0  0  0  0  0
    7.8312    8.0607    0.9261 C   0  0  0  0  0  0  0  0  0  0  0  0
    7.4473    6.7530    0.6188 C   0  0  0  0  0  0  0  0  0  0  0  0
    8.3621    5.6265    0.8958 C   0  0  0  0  0  0  0  0  0  0  0  0
    8.5240    5.2416    2.0374 O   0  0  0  0  0  0  0  0  0  0  0  0
    9.0802    4.9677   -0.2147 C   0  0  0  0  0  0  0  0  0  0  0  0
    8.9811    5.4742   -1.5127 C   0  0  0  0  0  0  0  0  0  0  0  0
    9.6588    4.8576   -2.5436 C   0  0  0  0  0  0  0  0  0  0  0  0
   10.4268    3.7332   -2.2963 C   0  0  0  0  0  0  0  0  0  0  0  0
   10.5245    3.2223   -1.0138 C   0  0  0  0  0  0  0  0  0  0  0  0
    9.8568    3.8322    0.0276 C   0  0  0  0  0  0  0  0  0  0  0  0
    4.0374    5.0838    1.4739 C   0  0  0  0  0  0  0  0  0  0  0  0
    3.0868    5.2201    0.7406 O   0  0  0  0  0  0  0  0  0  0  0  0
    2.2390    1.0749    8.9516 C   0  0  0  0  0  0  0  0  0  0  0  0
    0.9913    1.4388    8.8001 N   0  0  0  0  0  0  0  0  0  0  0  0
    0.6984    2.3904    9.7287 C   0  0  0  0  0  0  0  0  0  0  0  0
   -0.4520    3.1204   10.0306 C   0  0  0  0  0  0  0  0  0  0  0  0
   -0.4274    4.0417   11.0546 C   0  0  0  0  0  0  0  0  0  0  0  0
    0.7325    4.2470   11.7857 C   0  0  0  0  0  0  0  0  0  0  0  0
    1.8772    3.5316   11.4974 C   0  0  0  0  0  0  0  0  0  0  0  0
    1.8700    2.6013   10.4709 C   0  0  0  0  0  0  0  0  0  0  0  0
    2.8026    1.7661    9.9578 O   0  0  0  0  0  0  0  0  0  0  0  0
    4.9256    0.4583    7.8505 H   0  0  0  0  0  0  0  0  0  0  0  0
    4.5051   -0.0410    9.5065 H   0  0  0  0  0  0  0  0  0  0  0  0
    4.4796   -1.2323    8.1842 H   0  0  0  0  0  0  0  0  0  0  0  0
    1.1048   -0.6326    7.3747 H   0  0  0  0  0  0  0  0  0  0  0  0
    2.5712   -1.5643    6.9878 H   0  0  0  0  0  0  0  0  0  0  0  0
    1.9875    1.2502    5.9646 H   0  0  0  0  0  0  0  0  0  0  0  0
    1.7075   -0.2413    5.0344 H   0  0  0  0  0  0  0  0  0  0  0  0
    1.9793    1.4786    3.8782 H   0  0  0  0  0  0  0  0  0  0  0  0
    2.5482    2.6784    1.8056 H   0  0  0  0  0  0  0  0  0  0  0  0
    6.6455    1.6003    2.2976 H   0  0  0  0  0  0  0  0  0  0  0  0
    6.0867    0.4087    4.3776 H   0  0  0  0  0  0  0  0  0  0  0  0
    5.8481    2.4762    0.1930 H   0  0  0  0  0  0  0  0  0  0  0  0
    4.1318    2.8889   -0.0353 H   0  0  0  0  0  0  0  0  0  0  0  0
    6.6249    4.5655   -0.7078 H   0  0  0  0  0  0  0  0  0  0  0  0
    4.9705    5.1382   -1.0292 H   0  0  0  0  0  0  0  0  0  0  0  0
    4.3759    7.3899   -0.6466 H   0  0  0  0  0  0  0  0  0  0  0  0
    5.0593    9.6872   -0.0931 H   0  0  0  0  0  0  0  0  0  0  0  0
    7.2636   10.1177    0.9113 H   0  0  0  0  0  0  0  0  0  0  0  0
    8.7986    8.2514    1.3666 H   0  0  0  0  0  0  0  0  0  0  0  0
    8.3789    6.3492   -1.7078 H   0  0  0  0  0  0  0  0  0  0  0  0
    9.5864    5.2505   -3.5470 H   0  0  0  0  0  0  0  0  0  0  0  0
   10.9520    3.2519   -3.1080 H   0  0  0  0  0  0  0  0  0  0  0  0
   11.1253    2.3443   -0.8280 H   0  0  0  0  0  0  0  0  0  0  0  0
    9.9339    3.4325    1.0279 H   0  0  0  0  0  0  0  0  0  0  0  0
   -1.3579    2.9636    9.4640 H   0  0  0  0  0  0  0  0  0  0  0  0
   -1.3172    4.6071   11.2895 H   0  0  0  0  0  0  0  0  0  0  0  0
    0.7406    4.9720   12.5861 H   0  0  0  0  0  0  0  0  0  0  0  0
    2.7773    3.6971   12.0709 H   0  0  0  0  0  0  0  0  0  0  0  0
    3.9820    5.5376    2.7359 O   0  5  0  0  0  0  0  0  0  0  0  0
  1  2  1  0  0  0  0
  1 41  1  0  0  0  0
  1 42  1  0  0  0  0
  1 43  1  0  0  0  0
  2  3  1  0  0  0  0
  2 32  1  0  0  0  0
  3  4  1  0  0  0  0
  3 44  1  0  0  0  0
  3 45  1  0  0  0  0
  4  5  1  0  0  0  0
  4 46  1  0  0  0  0
  4 47  1  0  0  0  0
  5  6  1  0  0  0  0
  6 11  2  0  0  0  0
  6  7  1  0  0  0  0
  7  8  2  0  0  0  0
  7 48  1  0  0  0  0
  8  9  1  0  0  0  0
  8 49  1  0  0  0  0
  9 10  2  0  0  0  0
  9 12  1  0  0  0  0
 10 11  1  0  0  0  0
 10 50  1  0  0  0  0
 11 51  1  0  0  0  0
 12 13  1  0  0  0  0
 12 52  1  0  0  0  0
 12 53  1  0  0  0  0
 13 14  1  0  0  0  0
 13 15  1  0  0  0  0
 13 30  1  0  0  0  0
 15 16  1  0  0  0  0
 15 54  1  0  0  0  0
 15 55  1  0  0  0  0
 16 21  2  0  0  0  0
 16 17  1  0  0  0  0
 17 18  2  0  0  0  0
 17 56  1  0  0  0  0
 18 19  1  0  0  0  0
 18 57  1  0  0  0  0
 19 20  2  0  0  0  0
 19 58  1  0  0  0  0
 20 21  1  0  0  0  0
 20 59  1  0  0  0  0
 21 22  1  0  0  0  0
 22 23  2  0  0  0  0
 22 24  1  0  0  0  0
 24 29  2  0  0  0  0
 24 25  1  0  0  0  0
 25 26  2  0  0  0  0
 25 60  1  0  0  0  0
 26 27  1  0  0  0  0
 26 61  1  0  0  0  0
 27 28  2  0  0  0  0
 27 62  1  0  0  0  0
 28 29  1  0  0  0  0
 28 63  1  0  0  0  0
 29 64  1  0  0  0  0
 30 31  2  0  0  0  0
 30 69  1  0  0  0  0
 32 40  1  0  0  0  0
 32 33  2  0  0  0  0
 33 34  1  0  0  0  0
 34 39  2  0  0  0  0
 34 35  1  0  0  0  0
 35 36  2  0  0  0  0
 35 65  1  0  0  0  0
 36 37  1  0  0  0  0
 36 66  1  0  0  0  0
 37 38  2  0  0  0  0
 37 67  1  0  0  0  0
 38 39  1  0  0  0  0
 38 68  1  0  0  0  0
 39 40  1  0  0  0  0
M  CHG  1  69  -1
M  END
$$$$
ZINC03834058
  -OEChem-08230709403D

 67 71  0     1  0  0  0  0  0999 V2000
   -1.0778    2.3950    3.1445 C   0  0  0  0  0  0  0  0  0  0  0  0
    0.3768    2.4504    2.9788 N   0  0  0  0  0  0  0  0  0  0  0  0
    0.9648    2.3761    1.6391 C   0  0  0  0  0  0  0  0  0  0  0  0
    1.2366    0.9134    1.2819 C   0  0  0  0  0  0  0  0  0  0  0  0
   -0.0023    0.2071    1.1908 O   0  0  0  0  0  0  0  0  0  0  0  0
    0.0622   -1.1141    0.8789 C   0  0  0  0  0  0  0  0  0  0  0  0
    1.2923   -1.7169    0.6594 C   0  0  0  0  0  0  0  0  0  0  0  0
    1.3555   -3.0613    0.3477 C   0  0  0  0  0  0  0  0  0  0  0  0
    0.1935   -3.8035    0.2442 C   0  0  0  0  0  0  0  0  0  0  0  0
   -1.0340   -3.2037    0.4568 C   0  0  0  0  0  0  0  0  0  0  0  0
   -1.1022   -1.8609    0.7739 C   0  0  0  0  0  0  0  0  0  0  0  0
    0.2651   -5.2686   -0.1016 C   0  0  0  0  0  0  0  0  0  0  0  0
    0.2060   -5.4374   -1.6211 C   0  0  2  0  0  0  0  0  0  0  0  0
   -0.6852   -4.9427   -2.0073 H   0  0  0  0  0  0  0  0  0  0  0  0
    0.1537   -6.9045   -1.9619 C   0  0  0  0  0  0  0  0  0  0  0  0
    1.0675   -7.4180   -2.5629 O   0  0  0  0  0  0  0  0  0  0  0  0
    1.3688   -4.8526   -2.2109 O   0  0  0  0  0  0  0  0  0  0  0  0
    1.2734   -4.4656   -3.5074 C   0  0  0  0  0  0  0  0  0  0  0  0
    0.0685   -4.5863   -4.1836 C   0  0  0  0  0  0  0  0  0  0  0  0
   -0.0284   -4.1876   -5.5019 C   0  0  0  0  0  0  0  0  0  0  0  0
    1.0766   -3.6745   -6.1627 C   0  0  0  0  0  0  0  0  0  0  0  0
    2.2827   -3.5520   -5.5090 C   0  0  0  0  0  0  0  0  0  0  0  0
    2.3942   -3.9469   -4.1723 C   0  0  0  0  0  0  0  0  0  0  0  0
    3.6821   -3.8192   -3.4663 C   0  0  0  0  0  0  0  0  0  0  0  0
    3.7462   -4.0443   -2.2731 O   0  0  0  0  0  0  0  0  0  0  0  0
    4.8953   -3.4176   -4.2088 C   0  0  0  0  0  0  0  0  0  0  0  0
    5.1022   -3.8725   -5.5129 C   0  0  0  0  0  0  0  0  0  0  0  0
    6.2345   -3.4903   -6.2016 C   0  0  0  0  0  0  0  0  0  0  0  0
    7.1690   -2.6659   -5.5998 C   0  0  0  0  0  0  0  0  0  0  0  0
    6.9728   -2.2157   -4.3060 C   0  0  0  0  0  0  0  0  0  0  0  0
    5.8426   -2.5862   -3.6075 C   0  0  0  0  0  0  0  0  0  0  0  0
    1.1910    2.5724    4.0820 C   0  0  0  0  0  0  0  0  0  0  0  0
    2.4980    2.6252    4.0470 N   0  0  0  0  0  0  0  0  0  0  0  0
    2.9639    2.7495    5.3202 C   0  0  0  0  0  0  0  0  0  0  0  0
    4.2411    2.8509    5.8733 C   0  0  0  0  0  0  0  0  0  0  0  0
    4.3876    2.9611    7.2388 C   0  0  0  0  0  0  0  0  0  0  0  0
    3.2743    2.9719    8.0650 C   0  0  0  0  0  0  0  0  0  0  0  0
    2.0055    2.8723    7.5308 C   0  0  0  0  0  0  0  0  0  0  0  0
    1.8402    2.7607    6.1598 C   0  0  0  0  0  0  0  0  0  0  0  0
    0.7597    2.6489    5.3532 O   0  0  0  0  0  0  0  0  0  0  0  0
   -1.3906    1.3576    3.2635 H   0  0  0  0  0  0  0  0  0  0  0  0
   -1.3647    2.9646    4.0284 H   0  0  0  0  0  0  0  0  0  0  0  0
   -1.5602    2.8214    2.2650 H   0  0  0  0  0  0  0  0  0  0  0  0
    1.9007    2.9344    1.6215 H   0  0  0  0  0  0  0  0  0  0  0  0
    0.2725    2.8044    0.9142 H   0  0  0  0  0  0  0  0  0  0  0  0
    1.8574    0.4600    2.0547 H   0  0  0  0  0  0  0  0  0  0  0  0
    1.7546    0.8635    0.3241 H   0  0  0  0  0  0  0  0  0  0  0  0
    2.1999   -1.1367    0.7361 H   0  0  0  0  0  0  0  0  0  0  0  0
    2.3131   -3.5321    0.1812 H   0  0  0  0  0  0  0  0  0  0  0  0
   -1.9402   -3.7856    0.3753 H   0  0  0  0  0  0  0  0  0  0  0  0
   -2.0612   -1.3929    0.9403 H   0  0  0  0  0  0  0  0  0  0  0  0
    1.1994   -5.6854    0.2742 H   0  0  0  0  0  0  0  0  0  0  0  0
   -0.5755   -5.7911    0.3549 H   0  0  0  0  0  0  0  0  0  0  0  0
   -0.7961   -4.9893   -3.6772 H   0  0  0  0  0  0  0  0  0  0  0  0
   -0.9700   -4.2799   -6.0226 H   0  0  0  0  0  0  0  0  0  0  0  0
    0.9915   -3.3695   -7.1953 H   0  0  0  0  0  0  0  0  0  0  0  0
    3.1409   -3.1513   -6.0280 H   0  0  0  0  0  0  0  0  0  0  0  0
    4.3757   -4.5193   -5.9822 H   0  0  0  0  0  0  0  0  0  0  0  0
    6.3941   -3.8384   -7.2114 H   0  0  0  0  0  0  0  0  0  0  0  0
    8.0557   -2.3728   -6.1423 H   0  0  0  0  0  0  0  0  0  0  0  0
    7.7061   -1.5726   -3.8424 H   0  0  0  0  0  0  0  0  0  0  0  0
    5.6909   -2.2345   -2.5977 H   0  0  0  0  0  0  0  0  0  0  0  0
    5.1112    2.8433    5.2336 H   0  0  0  0  0  0  0  0  0  0  0  0
    5.3755    3.0400    7.6680 H   0  0  0  0  0  0  0  0  0  0  0  0
    3.4008    3.0584    9.1340 H   0  0  0  0  0  0  0  0  0  0  0  0
    1.1429    2.8810    8.1806 H   0  0  0  0  0  0  0  0  0  0  0  0
   -0.9080   -7.6406   -1.5977 O   0  5  0  0  0  0  0  0  0  0  0  0
  1  2  1  0  0  0  0
  1 41  1  0  0  0  0
  1 42  1  0  0  0  0
  1 43  1  0  0  0  0
  2  3  1  0  0  0  0
  2 32  1  0  0  0  0
  3  4  1  0  0  0  0
  3 44  1  0  0  0  0
  3 45  1  0  0  0  0
  4  5  1  0  0  0  0
  4 46  1  0  0  0  0
  4 47  1  0  0  0  0
  5  6  1  0  0  0  0
  6 11  2  0  0  0  0
  6  7  1  0  0  0  0
  7  8  2  0  0  0  0
  7 48  1  0  0  0  0
  8  9  1  0  0  0  0
  8 49  1  0  0  0  0
  9 10  2  0  0  0  0
  9 12  1  0  0  0  0
 10 11  1  0  0  0  0
 10 50  1  0  0  0  0
 11 51  1  0  0  0  0
 12 13  1  0  0  0  0
 12 52  1  0  0  0  0
 12 53  1  0  0  0  0
 13 14  1  0  0  0  0
 13 15  1  0  0  0  0
 13 17  1  0  0  0  0
 15 16  2  0  0  0  0
 15 67  1  0  0  0  0
 17 18  1  0  0  0  0
 18 23  2  0  0  0  0
 18 19  1  0  0  0  0
 19 20  2  0  0  0  0
 19 54  1  0  0  0  0
 20 21  1  0  0  0  0
 20 55  1  0  0  0  0
 21 22  2  0  0  0  0
 21 56  1  0  0  0  0
 22 23  1  0  0  0  0
 22 57  1  0  0  0  0
 23 24  1  0  0  0  0
 24 25  2  0  0  0  0
 24 26  1  0  0  0  0
 26 31  2  0  0  0  0
 26 27  1  0  0  0  0
 27 28  2  0  0  0  0
 27 58  1  0  0  0  0
 28 29  1  0  0  0  0
 28 59  1  0  0  0  0
 29 30  2  0  0  0  0
 29 60  1  0  0  0  0
 30 31  1  0  0  0  0
 30 61  1  0  0  0  0
 31 62  1  0  0  0  0
 32 40  1  0  0  0  0
 32 33  2  0  0  0  0
 33 34  1  0  0  0  0
 34 39  2  0  0  0  0
 34 35  1  0  0  0  0
 35 36  2  0  0  0  0
 35 63  1  0  0  0  0
 36 37  1  0  0  0  0
 36 64  1  0  0  0  0
 37 38  2  0  0  0  0
 37 65  1  0  0  0  0
 38 39  1  0  0  0  0
 38 66  1  0  0  0  0
 39 40  1  0  0  0  0
M  CHG  1  67  -1
M  END
$$$$
ZINC03834059
  -OEChem-08230709403D

 67 71  0     1  0  0  0  0  0999 V2000
   -2.7409    3.3626    1.7170 C   0  0  0  0  0  0  0  0  0  0  0  0
   -1.2893    3.5431    1.7980 N   0  0  0  0  0  0  0  0  0  0  0  0
   -0.4599    3.3534    0.6054 C   0  0  0  0  0  0  0  0  0  0  0  0
   -0.0160    1.8917    0.5201 C   0  0  0  0  0  0  0  0  0  0  0  0
   -1.1593    1.0575    0.3221 O   0  0  0  0  0  0  0  0  0  0  0  0
   -0.9377   -0.2798    0.2244 C   0  0  0  0  0  0  0  0  0  0  0  0
    0.3540   -0.7783    0.3114 C   0  0  0  0  0  0  0  0  0  0  0  0
    0.5760   -2.1385    0.2171 C   0  0  0  0  0  0  0  0  0  0  0  0
   -0.4868   -3.0020    0.0255 C   0  0  0  0  0  0  0  0  0  0  0  0
   -1.7745   -2.5071   -0.0672 C   0  0  0  0  0  0  0  0  0  0  0  0
   -2.0023   -1.1482    0.0318 C   0  0  0  0  0  0  0  0  0  0  0  0
   -0.2411   -4.4849   -0.0828 C   0  0  0  0  0  0  0  0  0  0  0  0
   -0.0053   -4.8570   -1.5480 C   0  0  2  0  0  0  0  0  0  0  0  0
   -0.8448   -4.5104   -2.1506 H   0  0  0  0  0  0  0  0  0  0  0  0
    0.1183   -6.3538   -1.6725 C   0  0  0  0  0  0  0  0  0  0  0  0
   -0.5119   -6.9438   -2.5179 O   0  0  0  0  0  0  0  0  0  0  0  0
    1.5195   -4.0752   -2.1312 S   0  0  0  0  0  0  0  0  0  0  0  0
    1.3965   -4.4137   -3.8560 C   0  0  0  0  0  0  0  0  0  0  0  0
    0.2502   -5.0079   -4.3721 C   0  0  0  0  0  0  0  0  0  0  0  0
    0.1550   -5.2676   -5.7230 C   0  0  0  0  0  0  0  0  0  0  0  0
    1.2015   -4.9489   -6.5758 C   0  0  0  0  0  0  0  0  0  0  0  0
    2.3473   -4.3650   -6.0843 C   0  0  0  0  0  0  0  0  0  0  0  0
    2.4591   -4.0899   -4.7175 C   0  0  0  0  0  0  0  0  0  0  0  0
    3.6817   -3.4659   -4.1845 C   0  0  0  0  0  0  0  0  0  0  0  0
    3.7328   -3.1278   -3.0174 O   0  0  0  0  0  0  0  0  0  0  0  0
    4.8469   -3.2503   -5.0680 C   0  0  0  0  0  0  0  0  0  0  0  0
    5.1139   -4.1439   -6.1074 C   0  0  0  0  0  0  0  0  0  0  0  0
    6.2002   -3.9341   -6.9311 C   0  0  0  0  0  0  0  0  0  0  0  0
    7.0304   -2.8467   -6.7231 C   0  0  0  0  0  0  0  0  0  0  0  0
    6.7750   -1.9604   -5.6915 C   0  0  0  0  0  0  0  0  0  0  0  0
    5.6891   -2.1553   -4.8635 C   0  0  0  0  0  0  0  0  0  0  0  0
   -0.7047    3.8909    2.9947 C   0  0  0  0  0  0  0  0  0  0  0  0
    0.5784    4.0711    3.1779 N   0  0  0  0  0  0  0  0  0  0  0  0
    0.7901    4.4082    4.4799 C   0  0  0  0  0  0  0  0  0  0  0  0
    1.9315    4.7105    5.2236 C   0  0  0  0  0  0  0  0  0  0  0  0
    1.8143    5.0136    6.5624 C   0  0  0  0  0  0  0  0  0  0  0  0
    0.5700    5.0197    7.1738 C   0  0  0  0  0  0  0  0  0  0  0  0
   -0.5669    4.7226    6.4496 C   0  0  0  0  0  0  0  0  0  0  0  0
   -0.4670    4.4156    5.1024 C   0  0  0  0  0  0  0  0  0  0  0  0
   -1.3681    4.0896    4.1472 O   0  0  0  0  0  0  0  0  0  0  0  0
   -2.9904    2.3235    1.9320 H   0  0  0  0  0  0  0  0  0  0  0  0
   -3.2288    4.0113    2.4445 H   0  0  0  0  0  0  0  0  0  0  0  0
   -3.0835    3.6186    0.7145 H   0  0  0  0  0  0  0  0  0  0  0  0
    0.4178    3.9967    0.6672 H   0  0  0  0  0  0  0  0  0  0  0  0
   -1.0369    3.6103   -0.2830 H   0  0  0  0  0  0  0  0  0  0  0  0
    0.4839    1.6091    1.4466 H   0  0  0  0  0  0  0  0  0  0  0  0
    0.6723    1.7692   -0.3161 H   0  0  0  0  0  0  0  0  0  0  0  0
    1.1849   -0.1039    0.4569 H   0  0  0  0  0  0  0  0  0  0  0  0
    1.5809   -2.5275    0.2892 H   0  0  0  0  0  0  0  0  0  0  0  0
   -2.6030   -3.1836   -0.2169 H   0  0  0  0  0  0  0  0  0  0  0  0
   -3.0084   -0.7622   -0.0404 H   0  0  0  0  0  0  0  0  0  0  0  0
    0.6367   -4.7517    0.5057 H   0  0  0  0  0  0  0  0  0  0  0  0
   -1.1093   -5.0255    0.2941 H   0  0  0  0  0  0  0  0  0  0  0  0
   -0.5680   -5.2628   -3.7148 H   0  0  0  0  0  0  0  0  0  0  0  0
   -0.7393   -5.7255   -6.1193 H   0  0  0  0  0  0  0  0  0  0  0  0
    1.1172   -5.1605   -7.6315 H   0  0  0  0  0  0  0  0  0  0  0  0
    3.1586   -4.1192   -6.7534 H   0  0  0  0  0  0  0  0  0  0  0  0
    4.4689   -4.9951   -6.2685 H   0  0  0  0  0  0  0  0  0  0  0  0
    6.4055   -4.6221   -7.7379 H   0  0  0  0  0  0  0  0  0  0  0  0
    7.8818   -2.6892   -7.3686 H   0  0  0  0  0  0  0  0  0  0  0  0
    7.4272   -1.1140   -5.5345 H   0  0  0  0  0  0  0  0  0  0  0  0
    5.4909   -1.4629   -4.0588 H   0  0  0  0  0  0  0  0  0  0  0  0
    2.9029    4.7073    4.7515 H   0  0  0  0  0  0  0  0  0  0  0  0
    2.6969    5.2481    7.1390 H   0  0  0  0  0  0  0  0  0  0  0  0
    0.4897    5.2584    8.2240 H   0  0  0  0  0  0  0  0  0  0  0  0
   -1.5329    4.7290    6.9327 H   0  0  0  0  0  0  0  0  0  0  0  0
    0.9284   -7.0315   -0.8442 O   0  5  0  0  0  0  0  0  0  0  0  0
  1  2  1  0  0  0  0
  1 41  1  0  0  0  0
  1 42  1  0  0  0  0
  1 43  1  0  0  0  0
  2  3  1  0  0  0  0
  2 32  1  0  0  0  0
  3  4  1  0  0  0  0
  3 44  1  0  0  0  0
  3 45  1  0  0  0  0
  4  5  1  0  0  0  0
  4 46  1  0  0  0  0
  4 47  1  0  0  0  0
  5  6  1  0  0  0  0
  6 11  2  0  0  0  0
  6  7  1  0  0  0  0
  7  8  2  0  0  0  0
  7 48  1  0  0  0  0
  8  9  1  0  0  0  0
  8 49  1  0  0  0  0
  9 10  2  0  0  0  0
  9 12  1  0  0  0  0
 10 11  1  0  0  0  0
 10 50  1  0  0  0  0
 11 51  1  0  0  0  0
 12 13  1  0  0  0  0
 12 52  1  0  0  0  0
 12 53  1  0  0  0  0
 13 14  1  0  0  0  0
 13 15  1  0  0  0  0
 13 17  1  0  0  0  0
 15 16  2  0  0  0  0
 15 67  1  0  0  0  0
 17 18  1  0  0  0  0
 18 23  2  0  0  0  0
 18 19  1  0  0  0  0
 19 20  2  0  0  0  0
 19 54  1  0  0  0  0
 20 21  1  0  0  0  0
 20 55  1  0  0  0  0
 21 22  2  0  0  0  0
 21 56  1  0  0  0  0
 22 23  1  0  0  0  0
 22 57  1  0  0  0  0
 23 24  1  0  0  0  0
 24 25  2  0  0  0  0
 24 26  1  0  0  0  0
 26 31  2  0  0  0  0
 26 27  1  0  0  0  0
 27 28  2  0  0  0  0
 27 58  1  0  0  0  0
 28 29  1  0  0  0  0
 28 59  1  0  0  0  0
 29 30  2  0  0  0  0
 29 60  1  0  0  0  0
 30 31  1  0  0  0  0
 30 61  1  0  0  0  0
 31 62  1  0  0  0  0
 32 40  1  0  0  0  0
 32 33  2  0  0  0  0
 33 34  1  0  0  0  0
 34 39  2  0  0  0  0
 34 35  1  0  0  0  0
 35 36  2  0  0  0  0
 35 63  1  0  0  0  0
 36 37  1  0  0  0  0
 36 64  1  0  0  0  0
 37 38  2  0  0  0  0
 37 65  1  0  0  0  0
 38 39  1  0  0  0  0
 38 66  1  0  0  0  0
 39 40  1  0  0  0  0
M  CHG  1  67  -1
M  END
$$$$
ZINC04137602
  -OEChem-08230709403D

 70 73  0     1  0  0  0  0  0999 V2000
   -1.1421   -1.0430    0.0728 C   0  0  0  0  0  0  0  0  0  0  0  0
    0.0613   -0.1359    0.0616 C   0  0  0  0  0  0  0  0  0  0  0  0
    0.0461    1.2094    0.0463 C   0  0  0  0  0  0  0  0  0  0  0  0
    1.3185    1.6347    0.0402 N   0  0  0  0  0  0  0  0  0  0  0  0
    2.1106    0.5886    0.0513 C   0  0  0  0  0  0  0  0  0  0  0  0
    1.3527   -0.5215    0.0648 O   0  0  0  0  0  0  0  0  0  0  0  0
    3.5884    0.6249    0.0499 C   0  0  0  0  0  0  0  0  0  0  0  0
    4.2595    1.8486    0.0300 C   0  0  0  0  0  0  0  0  0  0  0  0
    5.6388    1.8755    0.0346 C   0  0  0  0  0  0  0  0  0  0  0  0
    6.3568    0.6929    0.0473 C   0  0  0  0  0  0  0  0  0  0  0  0
    5.6977   -0.5235    0.0613 C   0  0  0  0  0  0  0  0  0  0  0  0
    4.3187   -0.5644    0.0627 C   0  0  0  0  0  0  0  0  0  0  0  0
   -1.1818    2.0830    0.0320 C   0  0  0  0  0  0  0  0  0  0  0  0
   -1.6025    2.3950    1.4695 C   0  0  0  0  0  0  0  0  0  0  0  0
   -2.7668    3.2233    1.4559 O   0  0  0  0  0  0  0  0  0  0  0  0
   -3.2739    3.5948    2.6608 C   0  0  0  0  0  0  0  0  0  0  0  0
   -2.6667    3.1660    3.8322 C   0  0  0  0  0  0  0  0  0  0  0  0
   -3.1809    3.5493    5.0557 C   0  0  0  0  0  0  0  0  0  0  0  0
   -4.3060    4.3509    5.1136 C   0  0  0  0  0  0  0  0  0  0  0  0
   -4.9164    4.7749    3.9477 C   0  0  0  0  0  0  0  0  0  0  0  0
   -4.4029    4.3987    2.7216 C   0  0  0  0  0  0  0  0  0  0  0  0
   -4.8682    4.7628    6.4498 C   0  0  0  0  0  0  0  0  0  0  0  0
   -5.8948    3.7269    6.9123 C   0  0  2  0  0  0  0  0  0  0  0  0
   -6.6549    3.5993    6.1416 H   0  0  0  0  0  0  0  0  0  0  0  0
   -6.5459    4.1992    8.1867 C   0  0  0  0  0  0  0  0  0  0  0  0
   -6.4579    3.5351    9.1922 O   0  0  0  0  0  0  0  0  0  0  0  0
   -5.2232    2.4472    7.1523 N   0  0  0  0  0  0  0  0  0  0  0  0
   -5.9396    1.2609    7.0692 C   0  0  0  0  0  0  0  0  0  0  0  0
   -7.3151    1.2878    6.8739 C   0  0  0  0  0  0  0  0  0  0  0  0
   -8.0248    0.1076    6.7922 C   0  0  0  0  0  0  0  0  0  0  0  0
   -7.3748   -1.1118    6.9032 C   0  0  0  0  0  0  0  0  0  0  0  0
   -6.0120   -1.1592    7.0961 C   0  0  0  0  0  0  0  0  0  0  0  0
   -5.2773    0.0275    7.1763 C   0  0  0  0  0  0  0  0  0  0  0  0
   -3.8188   -0.0158    7.3769 C   0  0  0  0  0  0  0  0  0  0  0  0
   -3.1989    1.0144    7.5532 O   0  0  0  0  0  0  0  0  0  0  0  0
   -3.1718   -1.1979    7.3650 O   0  0  0  0  0  0  0  0  0  0  0  0
   -1.7346   -1.1649    7.5692 C   0  0  0  0  0  0  0  0  0  0  0  0
   -1.4292   -1.2767    9.0643 C   0  0  0  0  0  0  0  0  0  0  0  0
   -1.0870   -2.3358    6.8274 C   0  0  0  0  0  0  0  0  0  0  0  0
   -1.4328   -1.2734   -0.9522 H   0  0  0  0  0  0  0  0  0  0  0  0
   -0.8961   -1.9665    0.5970 H   0  0  0  0  0  0  0  0  0  0  0  0
   -1.9676   -0.5452    0.5815 H   0  0  0  0  0  0  0  0  0  0  0  0
    3.7001    2.7724    0.0155 H   0  0  0  0  0  0  0  0  0  0  0  0
    6.1593    2.8218    0.0237 H   0  0  0  0  0  0  0  0  0  0  0  0
    7.4365    0.7194    0.0466 H   0  0  0  0  0  0  0  0  0  0  0  0
    6.2641   -1.4431    0.0716 H   0  0  0  0  0  0  0  0  0  0  0  0
    3.8055   -1.5145    0.0740 H   0  0  0  0  0  0  0  0  0  0  0  0
   -0.9600    3.0129   -0.4917 H   0  0  0  0  0  0  0  0  0  0  0  0
   -1.9919    1.5626   -0.4789 H   0  0  0  0  0  0  0  0  0  0  0  0
   -1.8243    1.4651    1.9931 H   0  0  0  0  0  0  0  0  0  0  0  0
   -0.7923    2.9153    1.9804 H   0  0  0  0  0  0  0  0  0  0  0  0
   -1.7903    2.5364    3.7875 H   0  0  0  0  0  0  0  0  0  0  0  0
   -2.7060    3.2194    5.9679 H   0  0  0  0  0  0  0  0  0  0  0  0
   -5.7950    5.4010    3.9955 H   0  0  0  0  0  0  0  0  0  0  0  0
   -4.8802    4.7298    1.8112 H   0  0  0  0  0  0  0  0  0  0  0  0
   -4.0612    4.8257    7.1798 H   0  0  0  0  0  0  0  0  0  0  0  0
   -5.3506    5.7358    6.3566 H   0  0  0  0  0  0  0  0  0  0  0  0
   -4.2779    2.4288    7.3693 H   0  0  0  0  0  0  0  0  0  0  0  0
   -7.8292    2.2335    6.7864 H   0  0  0  0  0  0  0  0  0  0  0  0
   -9.0937    0.1339    6.6403 H   0  0  0  0  0  0  0  0  0  0  0  0
   -7.9402   -2.0296    6.8377 H   0  0  0  0  0  0  0  0  0  0  0  0
   -5.5109   -2.1121    7.1816 H   0  0  0  0  0  0  0  0  0  0  0  0
   -1.3347   -0.2261    7.1860 H   0  0  0  0  0  0  0  0  0  0  0  0
   -1.8292   -2.2155    9.4476 H   0  0  0  0  0  0  0  0  0  0  0  0
   -0.3504   -1.2519    9.2176 H   0  0  0  0  0  0  0  0  0  0  0  0
   -1.8906   -0.4425    9.5928 H   0  0  0  0  0  0  0  0  0  0  0  0
   -1.3045   -2.2561    5.7623 H   0  0  0  0  0  0  0  0  0  0  0  0
   -0.0081   -2.3110    6.9807 H   0  0  0  0  0  0  0  0  0  0  0  0
   -1.4869   -3.2746    7.2107 H   0  0  0  0  0  0  0  0  0  0  0  0
   -7.2235    5.3578    8.2047 O   0  5  0  0  0  0  0  0  0  0  0  0
  1  2  1  0  0  0  0
  1 40  1  0  0  0  0
  1 41  1  0  0  0  0
  1 42  1  0  0  0  0
  2  6  1  0  0  0  0
  2  3  2  0  0  0  0
  3  4  1  0  0  0  0
  3 13  1  0  0  0  0
  4  5  2  0  0  0  0
  5  6  1  0  0  0  0
  5  7  1  0  0  0  0
  7 12  2  0  0  0  0
  7  8  1  0  0  0  0
  8  9  2  0  0  0  0
  8 43  1  0  0  0  0
  9 10  1  0  0  0  0
  9 44  1  0  0  0  0
 10 11  2  0  0  0  0
 10 45  1  0  0  0  0
 11 12  1  0  0  0  0
 11 46  1  0  0  0  0
 12 47  1  0  0  0  0
 13 14  1  0  0  0  0
 13 48  1  0  0  0  0
 13 49  1  0  0  0  0
 14 15  1  0  0  0  0
 14 50  1  0  0  0  0
 14 51  1  0  0  0  0
 15 16  1  0  0  0  0
 16 21  2  0  0  0  0
 16 17  1  0  0  0  0
 17 18  2  0  0  0  0
 17 52  1  0  0  0  0
 18 19  1  0  0  0  0
 18 53  1  0  0  0  0
 19 20  2  0  0  0  0
 19 22  1  0  0  0  0
 20 21  1  0  0  0  0
 20 54  1  0  0  0  0
 21 55  1  0  0  0  0
 22 23  1  0  0  0  0
 22 56  1  0  0  0  0
 22 57  1  0  0  0  0
 23 24  1  0  0  0  0
 23 25  1  0  0  0  0
 23 27  1  0  0  0  0
 25 26  2  0  0  0  0
 25 70  1  0  0  0  0
 27 28  1  0  0  0  0
 27 58  1  0  0  0  0
 28 33  2  0  0  0  0
 28 29  1  0  0  0  0
 29 30  2  0  0  0  0
 29 59  1  0  0  0  0
 30 31  1  0  0  0  0
 30 60  1  0  0  0  0
 31 32  2  0  0  0  0
 31 61  1  0  0  0  0
 32 33  1  0  0  0  0
 32 62  1  0  0  0  0
 33 34  1  0  0  0  0
 34 35  2  0  0  0  0
 34 36  1  0  0  0  0
 36 37  1  0  0  0  0
 37 38  1  0  0  0  0
 37 39  1  0  0  0  0
 37 63  1  0  0  0  0
 38 64  1  0  0  0  0
 38 65  1  0  0  0  0
 38 66  1  0  0  0  0
 39 67  1  0  0  0  0
 39 68  1  0  0  0  0
 39 69  1  0  0  0  0
M  CHG  1  70  -1
M  END
$$$$
ZINC04137603
  -OEChem-08230709403D

 74 78  0     1  0  0  0  0  0999 V2000
   -4.8588   -2.4174   -0.2757 C   0  0  0  0  0  0  0  0  0  0  0  0
   -4.2488   -1.0435   -0.1685 C   0  0  0  0  0  0  0  0  0  0  0  0
   -4.9158    0.1234   -0.1201 C   0  0  0  0  0  0  0  0  0  0  0  0
   -4.0114    1.1106   -0.0263 N   0  0  0  0  0  0  0  0  0  0  0  0
   -2.8109    0.5800   -0.0160 C   0  0  0  0  0  0  0  0  0  0  0  0
   -2.9331   -0.7556   -0.1086 O   0  0  0  0  0  0  0  0  0  0  0  0
   -1.5387    1.3258    0.0756 C   0  0  0  0  0  0  0  0  0  0  0  0
   -0.3231    0.6388    0.0768 C   0  0  0  0  0  0  0  0  0  0  0  0
    0.8616    1.3384    0.1567 C   0  0  0  0  0  0  0  0  0  0  0  0
    0.8472    2.7247    0.2412 C   0  0  0  0  0  0  0  0  0  0  0  0
   -0.3600    3.4115    0.2456 C   0  0  0  0  0  0  0  0  0  0  0  0
   -1.5490    2.7191    0.1665 C   0  0  0  0  0  0  0  0  0  0  0  0
    2.0170    3.4107    0.3193 O   0  0  0  0  0  0  0  0  0  0  0  0
    1.9297    4.8345    0.4039 C   0  0  0  0  0  0  0  0  0  0  0  0
   -6.4127    0.2924   -0.1630 C   0  0  0  0  0  0  0  0  0  0  0  0
   -6.8680    0.4386   -1.6164 C   0  0  0  0  0  0  0  0  0  0  0  0
   -8.2874    0.5988   -1.6571 O   0  0  0  0  0  0  0  0  0  0  0  0
   -8.8571    0.7427   -2.8825 C   0  0  0  0  0  0  0  0  0  0  0  0
   -8.0656    0.7356   -4.0219 C   0  0  0  0  0  0  0  0  0  0  0  0
   -8.6478    0.8768   -5.2667 C   0  0  0  0  0  0  0  0  0  0  0  0
  -10.0169    1.0355   -5.3770 C   0  0  0  0  0  0  0  0  0  0  0  0
  -10.8072    1.0486   -4.2425 C   0  0  0  0  0  0  0  0  0  0  0  0
  -10.2305    0.9026   -2.9958 C   0  0  0  0  0  0  0  0  0  0  0  0
  -10.6487    1.1951   -6.7358 C   0  0  0  0  0  0  0  0  0  0  0  0
  -10.7037    2.6797   -7.1016 C   0  0  2  0  0  0  0  0  0  0  0  0
  -11.2208    3.2288   -6.3147 H   0  0  0  0  0  0  0  0  0  0  0  0
  -11.4447    2.8494   -8.4027 C   0  0  0  0  0  0  0  0  0  0  0  0
  -10.8914    3.3519   -9.3520 O   0  0  0  0  0  0  0  0  0  0  0  0
   -9.3410    3.1982   -7.2444 N   0  0  0  0  0  0  0  0  0  0  0  0
   -9.0899    4.5506   -7.0576 C   0  0  0  0  0  0  0  0  0  0  0  0
  -10.1417    5.4340   -6.8480 C   0  0  0  0  0  0  0  0  0  0  0  0
   -9.8890    6.7767   -6.6568 C   0  0  0  0  0  0  0  0  0  0  0  0
   -8.5888    7.2578   -6.6833 C   0  0  0  0  0  0  0  0  0  0  0  0
   -7.5332    6.3995   -6.8952 C   0  0  0  0  0  0  0  0  0  0  0  0
   -7.7713    5.0345   -7.0850 C   0  0  0  0  0  0  0  0  0  0  0  0
   -6.6469    4.1104   -7.3127 C   0  0  0  0  0  0  0  0  0  0  0  0
   -5.9385    3.7740   -6.3833 O   0  0  0  0  0  0  0  0  0  0  0  0
   -6.3798    3.5919   -8.6709 C   0  0  0  0  0  0  0  0  0  0  0  0
   -7.1217    4.0583   -9.7581 C   0  0  0  0  0  0  0  0  0  0  0  0
   -6.8633    3.5744  -11.0237 C   0  0  0  0  0  0  0  0  0  0  0  0
   -5.8793    2.6205  -11.2156 C   0  0  0  0  0  0  0  0  0  0  0  0
   -5.1442    2.1498  -10.1418 C   0  0  0  0  0  0  0  0  0  0  0  0
   -5.3883    2.6293   -8.8717 C   0  0  0  0  0  0  0  0  0  0  0  0
   -4.9689   -2.6850   -1.3266 H   0  0  0  0  0  0  0  0  0  0  0  0
   -4.2111   -3.1420    0.2178 H   0  0  0  0  0  0  0  0  0  0  0  0
   -5.8375   -2.4189    0.2041 H   0  0  0  0  0  0  0  0  0  0  0  0
   -0.3111   -0.4391    0.0107 H   0  0  0  0  0  0  0  0  0  0  0  0
    1.8024    0.8081    0.1532 H   0  0  0  0  0  0  0  0  0  0  0  0
   -0.3670    4.4894    0.3115 H   0  0  0  0  0  0  0  0  0  0  0  0
   -2.4874    3.2538    0.1704 H   0  0  0  0  0  0  0  0  0  0  0  0
    1.3675    5.1117    1.2957 H   0  0  0  0  0  0  0  0  0  0  0  0
    2.9328    5.2573    0.4608 H   0  0  0  0  0  0  0  0  0  0  0  0
    1.4222    5.2206   -0.4801 H   0  0  0  0  0  0  0  0  0  0  0  0
   -6.8899   -0.5813    0.2810 H   0  0  0  0  0  0  0  0  0  0  0  0
   -6.6939    1.1841    0.3972 H   0  0  0  0  0  0  0  0  0  0  0  0
   -6.3908    1.3122   -2.0605 H   0  0  0  0  0  0  0  0  0  0  0  0
   -6.5867   -0.4531   -2.1767 H   0  0  0  0  0  0  0  0  0  0  0  0
   -6.9958    0.6158   -3.9361 H   0  0  0  0  0  0  0  0  0  0  0  0
   -8.0326    0.8669   -6.1543 H   0  0  0  0  0  0  0  0  0  0  0  0
  -11.8764    1.1728   -4.3313 H   0  0  0  0  0  0  0  0  0  0  0  0
  -10.8482    0.9133   -2.1099 H   0  0  0  0  0  0  0  0  0  0  0  0
  -10.0555    0.6599   -7.4774 H   0  0  0  0  0  0  0  0  0  0  0  0
  -11.6596    0.7879   -6.7165 H   0  0  0  0  0  0  0  0  0  0  0  0
   -8.6142    2.5966   -7.4696 H   0  0  0  0  0  0  0  0  0  0  0  0
  -11.1578    5.0685   -6.8304 H   0  0  0  0  0  0  0  0  0  0  0  0
  -10.7098    7.4584   -6.4895 H   0  0  0  0  0  0  0  0  0  0  0  0
   -8.4030    8.3116   -6.5373 H   0  0  0  0  0  0  0  0  0  0  0  0
   -6.5225    6.7798   -6.9144 H   0  0  0  0  0  0  0  0  0  0  0  0
   -7.8933    4.7991   -9.6090 H   0  0  0  0  0  0  0  0  0  0  0  0
   -7.4336    3.9372  -11.8661 H   0  0  0  0  0  0  0  0  0  0  0  0
   -5.6843    2.2415  -12.2079 H   0  0  0  0  0  0  0  0  0  0  0  0
   -4.3775    1.4056  -10.2986 H   0  0  0  0  0  0  0  0  0  0  0  0
   -4.8141    2.2608   -8.0345 H   0  0  0  0  0  0  0  0  0  0  0  0
  -12.7195    2.4422   -8.5071 O   0  5  0  0  0  0  0  0  0  0  0  0
  1  2  1  0  0  0  0
  1 44  1  0  0  0  0
  1 45  1  0  0  0  0
  1 46  1  0  0  0  0
  2  6  1  0  0  0  0
  2  3  2  0  0  0  0
  3  4  1  0  0  0  0
  3 15  1  0  0  0  0
  4  5  2  0  0  0  0
  5  6  1  0  0  0  0
  5  7  1  0  0  0  0
  7 12  2  0  0  0  0
  7  8  1  0  0  0  0
  8  9  2  0  0  0  0
  8 47  1  0  0  0  0
  9 10  1  0  0  0  0
  9 48  1  0  0  0  0
 10 11  2  0  0  0  0
 10 13  1  0  0  0  0
 11 12  1  0  0  0  0
 11 49  1  0  0  0  0
 12 50  1  0  0  0  0
 13 14  1  0  0  0  0
 14 51  1  0  0  0  0
 14 52  1  0  0  0  0
 14 53  1  0  0  0  0
 15 16  1  0  0  0  0
 15 54  1  0  0  0  0
 15 55  1  0  0  0  0
 16 17  1  0  0  0  0
 16 56  1  0  0  0  0
 16 57  1  0  0  0  0
 17 18  1  0  0  0  0
 18 23  2  0  0  0  0
 18 19  1  0  0  0  0
 19 20  2  0  0  0  0
 19 58  1  0  0  0  0
 20 21  1  0  0  0  0
 20 59  1  0  0  0  0
 21 22  2  0  0  0  0
 21 24  1  0  0  0  0
 22 23  1  0  0  0  0
 22 60  1  0  0  0  0
 23 61  1  0  0  0  0
 24 25  1  0  0  0  0
 24 62  1  0  0  0  0
 24 63  1  0  0  0  0
 25 26  1  0  0  0  0
 25 27  1  0  0  0  0
 25 29  1  0  0  0  0
 27 28  2  0  0  0  0
 27 74  1  0  0  0  0
 29 30  1  0  0  0  0
 29 64  1  0  0  0  0
 30 35  2  0  0  0  0
 30 31  1  0  0  0  0
 31 32  2  0  0  0  0
 31 65  1  0  0  0  0
 32 33  1  0  0  0  0
 32 66  1  0  0  0  0
 33 34  2  0  0  0  0
 33 67  1  0  0  0  0
 34 35  1  0  0  0  0
 34 68  1  0  0  0  0
 35 36  1  0  0  0  0
 36 37  2  0  0  0  0
 36 38  1  0  0  0  0
 38 43  2  0  0  0  0
 38 39  1  0  0  0  0
 39 40  2  0  0  0  0
 39 69  1  0  0  0  0
 40 41  1  0  0  0  0
 40 70  1  0  0  0  0
 41 42  2  0  0  0  0
 41 71  1  0  0  0  0
 42 43  1  0  0  0  0
 42 72  1  0  0  0  0
 43 73  1  0  0  0  0
M  CHG  1  74  -1
M  END
$$$$
ZINC04137604
  -OEChem-08230709403D

 72 76  0     1  0  0  0  0  0999 V2000
   -1.1298    3.5415    1.8835 C   0  0  0  0  0  0  0  0  0  0  0  0
    0.3278    3.5579    1.7378 N   0  0  0  0  0  0  0  0  0  0  0  0
    0.9378    3.2514    0.4415 C   0  0  0  0  0  0  0  0  0  0  0  0
    1.2014    1.7474    0.3448 C   0  0  0  0  0  0  0  0  0  0  0  0
   -0.0426    1.0443    0.3528 O   0  0  0  0  0  0  0  0  0  0  0  0
    0.0142   -0.3111    0.2727 C   0  0  0  0  0  0  0  0  0  0  0  0
    1.2419   -0.9509    0.1823 C   0  0  0  0  0  0  0  0  0  0  0  0
    1.2972   -2.3292    0.1063 C   0  0  0  0  0  0  0  0  0  0  0  0
    0.1299   -3.0703    0.1096 C   0  0  0  0  0  0  0  0  0  0  0  0
   -1.0951   -2.4347    0.1939 C   0  0  0  0  0  0  0  0  0  0  0  0
   -1.1555   -1.0570    0.2754 C   0  0  0  0  0  0  0  0  0  0  0  0
    0.1930   -4.5734    0.0208 C   0  0  0  0  0  0  0  0  0  0  0  0
    0.1583   -4.9993   -1.4483 C   0  0  2  0  0  0  0  0  0  0  0  0
   -0.7213   -4.5720   -1.9298 H   0  0  0  0  0  0  0  0  0  0  0  0
    0.0974   -6.5027   -1.5341 C   0  0  0  0  0  0  0  0  0  0  0  0
    0.9733   -7.1113   -2.1018 O   0  0  0  0  0  0  0  0  0  0  0  0
    1.3664   -4.5201   -2.1244 N   0  0  0  0  0  0  0  0  0  0  0  0
    1.3564   -4.3085   -3.4965 C   0  0  0  0  0  0  0  0  0  0  0  0
    0.2409   -4.6555   -4.2487 C   0  0  0  0  0  0  0  0  0  0  0  0
    0.2332   -4.4437   -5.6119 C   0  0  0  0  0  0  0  0  0  0  0  0
    1.3345   -3.8847   -6.2421 C   0  0  0  0  0  0  0  0  0  0  0  0
    2.4496   -3.5341   -5.5141 C   0  0  0  0  0  0  0  0  0  0  0  0
    2.4716   -3.7371   -4.1309 C   0  0  0  0  0  0  0  0  0  0  0  0
    3.6591   -3.3587   -3.3445 C   0  0  0  0  0  0  0  0  0  0  0  0
    3.8749   -2.1881   -3.0938 O   0  0  0  0  0  0  0  0  0  0  0  0
    4.5861   -4.3993   -2.8615 C   0  0  0  0  0  0  0  0  0  0  0  0
    4.4057   -5.7326   -3.2407 C   0  0  0  0  0  0  0  0  0  0  0  0
    5.2779   -6.6988   -2.7898 C   0  0  0  0  0  0  0  0  0  0  0  0
    6.3282   -6.3572   -1.9528 C   0  0  0  0  0  0  0  0  0  0  0  0
    6.5152   -5.0451   -1.5661 C   0  0  0  0  0  0  0  0  0  0  0  0
    5.6502   -4.0580   -2.0144 C   0  0  0  0  0  0  0  0  0  0  0  0
    5.8324   -2.7685   -1.6349 O   0  0  0  0  0  0  0  0  0  0  0  0
    6.9376   -2.4965   -0.7708 C   0  0  0  0  0  0  0  0  0  0  0  0
    1.1242    3.8614    2.8187 C   0  0  0  0  0  0  0  0  0  0  0  0
    2.4321    3.8986    2.7995 N   0  0  0  0  0  0  0  0  0  0  0  0
    2.8774    4.2357    4.0411 C   0  0  0  0  0  0  0  0  0  0  0  0
    4.1458    4.4217    4.5922 C   0  0  0  0  0  0  0  0  0  0  0  0
    4.2700    4.7630    5.9212 C   0  0  0  0  0  0  0  0  0  0  0  0
    3.1430    4.9224    6.7126 C   0  0  0  0  0  0  0  0  0  0  0  0
    1.8825    4.7415    6.1799 C   0  0  0  0  0  0  0  0  0  0  0  0
    1.7396    4.3981    4.8454 C   0  0  0  0  0  0  0  0  0  0  0  0
    0.6720    4.1571    4.0499 O   0  0  0  0  0  0  0  0  0  0  0  0
   -1.4549    2.5419    2.1722 H   0  0  0  0  0  0  0  0  0  0  0  0
   -1.4263    4.2559    2.6515 H   0  0  0  0  0  0  0  0  0  0  0  0
   -1.5929    3.8144    0.9353 H   0  0  0  0  0  0  0  0  0  0  0  0
    1.8794    3.7922    0.3462 H   0  0  0  0  0  0  0  0  0  0  0  0
    0.2623    3.5541   -0.3586 H   0  0  0  0  0  0  0  0  0  0  0  0
    1.8044    1.4288    1.1951 H   0  0  0  0  0  0  0  0  0  0  0  0
    1.7352    1.5309   -0.5806 H   0  0  0  0  0  0  0  0  0  0  0  0
    2.1537   -0.3722    0.1755 H   0  0  0  0  0  0  0  0  0  0  0  0
    2.2528   -2.8280    0.0404 H   0  0  0  0  0  0  0  0  0  0  0  0
   -2.0054   -3.0158    0.1963 H   0  0  0  0  0  0  0  0  0  0  0  0
   -2.1126   -0.5610    0.3415 H   0  0  0  0  0  0  0  0  0  0  0  0
    1.1167   -4.9260    0.4796 H   0  0  0  0  0  0  0  0  0  0  0  0
   -0.6604   -5.0044    0.5443 H   0  0  0  0  0  0  0  0  0  0  0  0
    2.1733   -4.3507   -1.6134 H   0  0  0  0  0  0  0  0  0  0  0  0
   -0.6210   -5.0917   -3.7657 H   0  0  0  0  0  0  0  0  0  0  0  0
   -0.6365   -4.7148   -6.1920 H   0  0  0  0  0  0  0  0  0  0  0  0
    1.3175   -3.7230   -7.3098 H   0  0  0  0  0  0  0  0  0  0  0  0
    3.3043   -3.0986   -6.0103 H   0  0  0  0  0  0  0  0  0  0  0  0
    3.5861   -6.0041   -3.8895 H   0  0  0  0  0  0  0  0  0  0  0  0
    5.1398   -7.7281   -3.0864 H   0  0  0  0  0  0  0  0  0  0  0  0
    7.0044   -7.1221   -1.6006 H   0  0  0  0  0  0  0  0  0  0  0  0
    7.3359   -4.7870   -0.9133 H   0  0  0  0  0  0  0  0  0  0  0  0
    7.8646   -2.7908   -1.2630 H   0  0  0  0  0  0  0  0  0  0  0  0
    6.9686   -1.4306   -0.5451 H   0  0  0  0  0  0  0  0  0  0  0  0
    6.8227   -3.0608    0.1547 H   0  0  0  0  0  0  0  0  0  0  0  0
    5.0266    4.2989    3.9794 H   0  0  0  0  0  0  0  0  0  0  0  0
    5.2512    4.9075    6.3489 H   0  0  0  0  0  0  0  0  0  0  0  0
    3.2520    5.1898    7.7533 H   0  0  0  0  0  0  0  0  0  0  0  0
    1.0091    4.8670    6.8026 H   0  0  0  0  0  0  0  0  0  0  0  0
   -0.9299   -7.1655   -0.9800 O   0  5  0  0  0  0  0  0  0  0  0  0
  1  2  1  0  0  0  0
  1 43  1  0  0  0  0
  1 44  1  0  0  0  0
  1 45  1  0  0  0  0
  2  3  1  0  0  0  0
  2 34  1  0  0  0  0
  3  4  1  0  0  0  0
  3 46  1  0  0  0  0
  3 47  1  0  0  0  0
  4  5  1  0  0  0  0
  4 48  1  0  0  0  0
  4 49  1  0  0  0  0
  5  6  1  0  0  0  0
  6 11  2  0  0  0  0
  6  7  1  0  0  0  0
  7  8  2  0  0  0  0
  7 50  1  0  0  0  0
  8  9  1  0  0  0  0
  8 51  1  0  0  0  0
  9 10  2  0  0  0  0
  9 12  1  0  0  0  0
 10 11  1  0  0  0  0
 10 52  1  0  0  0  0
 11 53  1  0  0  0  0
 12 13  1  0  0  0  0
 12 54  1  0  0  0  0
 12 55  1  0  0  0  0
 13 14  1  0  0  0  0
 13 15  1  0  0  0  0
 13 17  1  0  0  0  0
 15 16  2  0  0  0  0
 15 72  1  0  0  0  0
 17 18  1  0  0  0  0
 17 56  1  0  0  0  0
 18 23  2  0  0  0  0
 18 19  1  0  0  0  0
 19 20  2  0  0  0  0
 19 57  1  0  0  0  0
 20 21  1  0  0  0  0
 20 58  1  0  0  0  0
 21 22  2  0  0  0  0
 21 59  1  0  0  0  0
 22 23  1  0  0  0  0
 22 60  1  0  0  0  0
 23 24  1  0  0  0  0
 24 25  2  0  0  0  0
 24 26  1  0  0  0  0
 26 31  2  0  0  0  0
 26 27  1  0  0  0  0
 27 28  2  0  0  0  0
 27 61  1  0  0  0  0
 28 29  1  0  0  0  0
 28 62  1  0  0  0  0
 29 30  2  0  0  0  0
 29 63  1  0  0  0  0
 30 31  1  0  0  0  0
 30 64  1  0  0  0  0
 31 32  1  0  0  0  0
 32 33  1  0  0  0  0
 33 65  1  0  0  0  0
 33 66  1  0  0  0  0
 33 67  1  0  0  0  0
 34 42  1  0  0  0  0
 34 35  2  0  0  0  0
 35 36  1  0  0  0  0
 36 41  2  0  0  0  0
 36 37  1  0  0  0  0
 37 38  2  0  0  0  0
 37 68  1  0  0  0  0
 38 39  1  0  0  0  0
 38 69  1  0  0  0  0
 39 40  2  0  0  0  0
 39 70  1  0  0  0  0
 40 41  1  0  0  0  0
 40 71  1  0  0  0  0
 41 42  1  0  0  0  0
M  CHG  1  72  -1
M  END
$$$$
ZINC04137605
  -OEChem-08230709403D

 78 82  0     1  0  0  0  0  0999 V2000
    0.8864    6.2724   -0.5984 C   0  0  0  0  0  0  0  0  0  0  0  0
    0.9453    4.9700    0.1575 C   0  0  0  0  0  0  0  0  0  0  0  0
    1.2942    3.7736   -0.3580 C   0  0  0  0  0  0  0  0  0  0  0  0
    1.2133    2.8603    0.6584 N   0  0  0  0  0  0  0  0  0  0  0  0
    0.8223    3.5395    1.7750 C   0  0  0  0  0  0  0  0  0  0  0  0
    0.6661    4.8050    1.4555 N   0  0  0  0  0  0  0  0  0  0  0  0
    0.6103    2.9524    3.1159 C   0  0  0  0  0  0  0  0  0  0  0  0
    0.4077    1.5789    3.2553 C   0  0  0  0  0  0  0  0  0  0  0  0
    0.2149    1.0369    4.5094 C   0  0  0  0  0  0  0  0  0  0  0  0
    0.2120    1.8535    5.6262 C   0  0  0  0  0  0  0  0  0  0  0  0
    0.4075    3.2167    5.4942 C   0  0  0  0  0  0  0  0  0  0  0  0
    0.6063    3.7705    4.2463 C   0  0  0  0  0  0  0  0  0  0  0  0
    1.4986    1.4263    0.5661 C   0  0  0  0  0  0  0  0  0  0  0  0
    0.2907    0.7176    0.2821 O   0  0  0  0  0  0  0  0  0  0  0  0
    0.4593   -0.6971    0.1710 C   0  0  0  0  0  0  0  0  0  0  0  0
    1.6942    3.4944   -1.7838 C   0  0  0  0  0  0  0  0  0  0  0  0
    0.4501    3.1467   -2.6038 C   0  0  0  0  0  0  0  0  0  0  0  0
    0.8294    2.8819   -3.9558 O   0  0  0  0  0  0  0  0  0  0  0  0
   -0.1648    2.5551   -4.8228 C   0  0  0  0  0  0  0  0  0  0  0  0
   -1.4777    2.4849   -4.3800 C   0  0  0  0  0  0  0  0  0  0  0  0
   -2.4871    2.1576   -5.2644 C   0  0  0  0  0  0  0  0  0  0  0  0
   -2.1886    1.8898   -6.5876 C   0  0  0  0  0  0  0  0  0  0  0  0
   -0.8802    1.9534   -7.0302 C   0  0  0  0  0  0  0  0  0  0  0  0
    0.1322    2.2854   -6.1509 C   0  0  0  0  0  0  0  0  0  0  0  0
   -3.2911    1.5273   -7.5490 C   0  0  0  0  0  0  0  0  0  0  0  0
   -3.4871    0.0100   -7.5516 C   0  0  2  0  0  0  0  0  0  0  0  0
   -2.5385   -0.4786   -7.7741 H   0  0  0  0  0  0  0  0  0  0  0  0
   -4.5026   -0.3636   -8.6006 C   0  0  0  0  0  0  0  0  0  0  0  0
   -5.5193   -0.9332   -8.2815 O   0  0  0  0  0  0  0  0  0  0  0  0
   -3.9627   -0.4232   -6.2354 N   0  0  0  0  0  0  0  0  0  0  0  0
   -3.7306   -1.7229   -5.8068 C   0  0  0  0  0  0  0  0  0  0  0  0
   -2.9833   -2.5939   -6.5902 C   0  0  0  0  0  0  0  0  0  0  0  0
   -2.7492   -3.8834   -6.1593 C   0  0  0  0  0  0  0  0  0  0  0  0
   -3.2652   -4.3248   -4.9503 C   0  0  0  0  0  0  0  0  0  0  0  0
   -4.0131   -3.4789   -4.1622 C   0  0  0  0  0  0  0  0  0  0  0  0
   -4.2549   -2.1668   -4.5814 C   0  0  0  0  0  0  0  0  0  0  0  0
   -5.0546   -1.2563   -3.7438 C   0  0  0  0  0  0  0  0  0  0  0  0
   -4.5666   -0.7626   -2.7453 O   0  0  0  0  0  0  0  0  0  0  0  0
   -6.4501   -0.9429   -4.1169 C   0  0  0  0  0  0  0  0  0  0  0  0
   -7.0457   -1.5833   -5.2056 C   0  0  0  0  0  0  0  0  0  0  0  0
   -8.3502   -1.2903   -5.5447 C   0  0  0  0  0  0  0  0  0  0  0  0
   -9.0647   -0.3558   -4.8159 C   0  0  0  0  0  0  0  0  0  0  0  0
   -8.4787    0.2867   -3.7394 C   0  0  0  0  0  0  0  0  0  0  0  0
   -7.1769   -0.0009   -3.3858 C   0  0  0  0  0  0  0  0  0  0  0  0
    1.8564    6.7669   -0.5463 H   0  0  0  0  0  0  0  0  0  0  0  0
    0.6339    6.0766   -1.6405 H   0  0  0  0  0  0  0  0  0  0  0  0
    0.1263    6.9157   -0.1551 H   0  0  0  0  0  0  0  0  0  0  0  0
    0.4052    0.9411    2.3838 H   0  0  0  0  0  0  0  0  0  0  0  0
    0.0617   -0.0265    4.6190 H   0  0  0  0  0  0  0  0  0  0  0  0
    0.0569    1.4248    6.6053 H   0  0  0  0  0  0  0  0  0  0  0  0
    0.4042    3.8488    6.3699 H   0  0  0  0  0  0  0  0  0  0  0  0
    0.7588    4.8348    4.1446 H   0  0  0  0  0  0  0  0  0  0  0  0
    1.9113    1.0763    1.5123 H   0  0  0  0  0  0  0  0  0  0  0  0
    2.2196    1.2500   -0.2322 H   0  0  0  0  0  0  0  0  0  0  0  0
   -0.5027   -1.1617   -0.0453 H   0  0  0  0  0  0  0  0  0  0  0  0
    1.1587   -0.9175   -0.6354 H   0  0  0  0  0  0  0  0  0  0  0  0
    0.8504   -1.0911    1.1090 H   0  0  0  0  0  0  0  0  0  0  0  0
    2.1727    4.3778   -2.2066 H   0  0  0  0  0  0  0  0  0  0  0  0
    2.3913    2.6568   -1.8083 H   0  0  0  0  0  0  0  0  0  0  0  0
   -0.0284    2.2633   -2.1810 H   0  0  0  0  0  0  0  0  0  0  0  0
   -0.2470    3.9843   -2.5793 H   0  0  0  0  0  0  0  0  0  0  0  0
   -1.7108    2.6900   -3.3456 H   0  0  0  0  0  0  0  0  0  0  0  0
   -3.5099    2.1072   -4.9212 H   0  0  0  0  0  0  0  0  0  0  0  0
   -0.6496    1.7438   -8.0642 H   0  0  0  0  0  0  0  0  0  0  0  0
    1.1541    2.3347   -6.4969 H   0  0  0  0  0  0  0  0  0  0  0  0
   -4.2168    2.0128   -7.2400 H   0  0  0  0  0  0  0  0  0  0  0  0
   -3.0231    1.8608   -8.5516 H   0  0  0  0  0  0  0  0  0  0  0  0
   -4.4398    0.1982   -5.6635 H   0  0  0  0  0  0  0  0  0  0  0  0
   -2.5814   -2.2597   -7.5353 H   0  0  0  0  0  0  0  0  0  0  0  0
   -2.1636   -4.5549   -6.7696 H   0  0  0  0  0  0  0  0  0  0  0  0
   -3.0797   -5.3379   -4.6251 H   0  0  0  0  0  0  0  0  0  0  0  0
   -4.4121   -3.8282   -3.2213 H   0  0  0  0  0  0  0  0  0  0  0  0
   -6.4876   -2.3092   -5.7782 H   0  0  0  0  0  0  0  0  0  0  0  0
   -8.8134   -1.7877   -6.3840 H   0  0  0  0  0  0  0  0  0  0  0  0
  -10.0842   -0.1265   -5.0888 H   0  0  0  0  0  0  0  0  0  0  0  0
   -9.0421    1.0147   -3.1747 H   0  0  0  0  0  0  0  0  0  0  0  0
   -6.7206    0.5014   -2.5456 H   0  0  0  0  0  0  0  0  0  0  0  0
   -4.2776   -0.0634   -9.8894 O   0  5  0  0  0  0  0  0  0  0  0  0
  1  2  1  0  0  0  0
  1 45  1  0  0  0  0
  1 46  1  0  0  0  0
  1 47  1  0  0  0  0
  2  6  1  0  0  0  0
  2  3  2  0  0  0  0
  3  4  1  0  0  0  0
  3 16  1  0  0  0  0
  4  5  1  0  0  0  0
  4 13  1  0  0  0  0
  5  6  2  0  0  0  0
  5  7  1  0  0  0  0
  7 12  2  0  0  0  0
  7  8  1  0  0  0  0
  8  9  2  0  0  0  0
  8 48  1  0  0  0  0
  9 10  1  0  0  0  0
  9 49  1  0  0  0  0
 10 11  2  0  0  0  0
 10 50  1  0  0  0  0
 11 12  1  0  0  0  0
 11 51  1  0  0  0  0
 12 52  1  0  0  0  0
 13 14  1  0  0  0  0
 13 53  1  0  0  0  0
 13 54  1  0  0  0  0
 14 15  1  0  0  0  0
 15 55  1  0  0  0  0
 15 56  1  0  0  0  0
 15 57  1  0  0  0  0
 16 17  1  0  0  0  0
 16 58  1  0  0  0  0
 16 59  1  0  0  0  0
 17 18  1  0  0  0  0
 17 60  1  0  0  0  0
 17 61  1  0  0  0  0
 18 19  1  0  0  0  0
 19 24  2  0  0  0  0
 19 20  1  0  0  0  0
 20 21  2  0  0  0  0
 20 62  1  0  0  0  0
 21 22  1  0  0  0  0
 21 63  1  0  0  0  0
 22 23  2  0  0  0  0
 22 25  1  0  0  0  0
 23 24  1  0  0  0  0
 23 64  1  0  0  0  0
 24 65  1  0  0  0  0
 25 26  1  0  0  0  0
 25 66  1  0  0  0  0
 25 67  1  0  0  0  0
 26 27  1  0  0  0  0
 26 28  1  0  0  0  0
 26 30  1  0  0  0  0
 28 29  2  0  0  0  0
 28 78  1  0  0  0  0
 30 31  1  0  0  0  0
 30 68  1  0  0  0  0
 31 36  2  0  0  0  0
 31 32  1  0  0  0  0
 32 33  2  0  0  0  0
 32 69  1  0  0  0  0
 33 34  1  0  0  0  0
 33 70  1  0  0  0  0
 34 35  2  0  0  0  0
 34 71  1  0  0  0  0
 35 36  1  0  0  0  0
 35 72  1  0  0  0  0
 36 37  1  0  0  0  0
 37 38  2  0  0  0  0
 37 39  1  0  0  0  0
 39 44  2  0  0  0  0
 39 40  1  0  0  0  0
 40 41  2  0  0  0  0
 40 73  1  0  0  0  0
 41 42  1  0  0  0  0
 41 74  1  0  0  0  0
 42 43  2  0  0  0  0
 42 75  1  0  0  0  0
 43 44  1  0  0  0  0
 43 76  1  0  0  0  0
 44 77  1  0  0  0  0
M  CHG  1  78  -1
M  END
$$$$
ZINC04137605
  -OEChem-08230709403D

 78 82  0     1  0  0  0  0  0999 V2000
    0.8864    6.2724   -0.5984 C   0  0  0  0  0  0  0  0  0  0  0  0
    0.9453    4.9700    0.1575 C   0  0  0  0  0  0  0  0  0  0  0  0
    1.2942    3.7736   -0.3580 C   0  0  0  0  0  0  0  0  0  0  0  0
    1.2133    2.8603    0.6584 N   0  0  0  0  0  0  0  0  0  0  0  0
    0.8223    3.5395    1.7750 C   0  0  0  0  0  0  0  0  0  0  0  0
    0.6661    4.8050    1.4555 N   0  0  0  0  0  0  0  0  0  0  0  0
    0.6103    2.9524    3.1159 C   0  0  0  0  0  0  0  0  0  0  0  0
    0.4077    1.5789    3.2553 C   0  0  0  0  0  0  0  0  0  0  0  0
    0.2149    1.0369    4.5094 C   0  0  0  0  0  0  0  0  0  0  0  0
    0.2120    1.8535    5.6262 C   0  0  0  0  0  0  0  0  0  0  0  0
    0.4075    3.2167    5.4942 C   0  0  0  0  0  0  0  0  0  0  0  0
    0.6063    3.7705    4.2463 C   0  0  0  0  0  0  0  0  0  0  0  0
    1.4986    1.4263    0.5661 C   0  0  0  0  0  0  0  0  0  0  0  0
    0.2907    0.7176    0.2821 O   0  0  0  0  0  0  0  0  0  0  0  0
    0.4593   -0.6971    0.1710 C   0  0  0  0  0  0  0  0  0  0  0  0
    1.6942    3.4944   -1.7838 C   0  0  0  0  0  0  0  0  0  0  0  0
    0.4501    3.1467   -2.6038 C   0  0  0  0  0  0  0  0  0  0  0  0
    0.8294    2.8819   -3.9558 O   0  0  0  0  0  0  0  0  0  0  0  0
   -0.1648    2.5551   -4.8228 C   0  0  0  0  0  0  0  0  0  0  0  0
   -1.4777    2.4849   -4.3800 C   0  0  0  0  0  0  0  0  0  0  0  0
   -2.4871    2.1576   -5.2644 C   0  0  0  0  0  0  0  0  0  0  0  0
   -2.1886    1.8898   -6.5876 C   0  0  0  0  0  0  0  0  0  0  0  0
   -0.8802    1.9534   -7.0302 C   0  0  0  0  0  0  0  0  0  0  0  0
    0.1322    2.2854   -6.1509 C   0  0  0  0  0  0  0  0  0  0  0  0
   -3.2911    1.5273   -7.5490 C   0  0  0  0  0  0  0  0  0  0  0  0
   -3.4871    0.0100   -7.5516 C   0  0  2  0  0  0  0  0  0  0  0  0
   -2.5385   -0.4786   -7.7741 H   0  0  0  0  0  0  0  0  0  0  0  0
   -4.5026   -0.3636   -8.6006 C   0  0  0  0  0  0  0  0  0  0  0  0
   -5.5193   -0.9332   -8.2815 O   0  0  0  0  0  0  0  0  0  0  0  0
   -3.9627   -0.4232   -6.2354 N   0  0  0  0  0  0  0  0  0  0  0  0
   -3.7306   -1.7229   -5.8068 C   0  0  0  0  0  0  0  0  0  0  0  0
   -2.9833   -2.5939   -6.5902 C   0  0  0  0  0  0  0  0  0  0  0  0
   -2.7492   -3.8834   -6.1593 C   0  0  0  0  0  0  0  0  0  0  0  0
   -3.2652   -4.3248   -4.9503 C   0  0  0  0  0  0  0  0  0  0  0  0
   -4.0131   -3.4789   -4.1622 C   0  0  0  0  0  0  0  0  0  0  0  0
   -4.2549   -2.1668   -4.5814 C   0  0  0  0  0  0  0  0  0  0  0  0
   -5.0546   -1.2563   -3.7438 C   0  0  0  0  0  0  0  0  0  0  0  0
   -4.5666   -0.7626   -2.7453 O   0  0  0  0  0  0  0  0  0  0  0  0
   -6.4501   -0.9429   -4.1169 C   0  0  0  0  0  0  0  0  0  0  0  0
   -7.0457   -1.5833   -5.2056 C   0  0  0  0  0  0  0  0  0  0  0  0
   -8.3502   -1.2903   -5.5447 C   0  0  0  0  0  0  0  0  0  0  0  0
   -9.0647   -0.3558   -4.8159 C   0  0  0  0  0  0  0  0  0  0  0  0
   -8.4787    0.2867   -3.7394 C   0  0  0  0  0  0  0  0  0  0  0  0
   -7.1769   -0.0009   -3.3858 C   0  0  0  0  0  0  0  0  0  0  0  0
    1.8564    6.7669   -0.5463 H   0  0  0  0  0  0  0  0  0  0  0  0
    0.6339    6.0766   -1.6405 H   0  0  0  0  0  0  0  0  0  0  0  0
    0.1263    6.9157   -0.1551 H   0  0  0  0  0  0  0  0  0  0  0  0
    0.4052    0.9411    2.3838 H   0  0  0  0  0  0  0  0  0  0  0  0
    0.0617   -0.0265    4.6190 H   0  0  0  0  0  0  0  0  0  0  0  0
    0.0569    1.4248    6.6053 H   0  0  0  0  0  0  0  0  0  0  0  0
    0.4042    3.8488    6.3699 H   0  0  0  0  0  0  0  0  0  0  0  0
    0.7588    4.8348    4.1446 H   0  0  0  0  0  0  0  0  0  0  0  0
    1.9113    1.0763    1.5123 H   0  0  0  0  0  0  0  0  0  0  0  0
    2.2196    1.2500   -0.2322 H   0  0  0  0  0  0  0  0  0  0  0  0
   -0.5027   -1.1617   -0.0453 H   0  0  0  0  0  0  0  0  0  0  0  0
    1.1587   -0.9175   -0.6354 H   0  0  0  0  0  0  0  0  0  0  0  0
    0.8504   -1.0911    1.1090 H   0  0  0  0  0  0  0  0  0  0  0  0
    2.1727    4.3778   -2.2066 H   0  0  0  0  0  0  0  0  0  0  0  0
    2.3913    2.6568   -1.8083 H   0  0  0  0  0  0  0  0  0  0  0  0
   -0.0284    2.2633   -2.1810 H   0  0  0  0  0  0  0  0  0  0  0  0
   -0.2470    3.9843   -2.5793 H   0  0  0  0  0  0  0  0  0  0  0  0
   -1.7108    2.6900   -3.3456 H   0  0  0  0  0  0  0  0  0  0  0  0
   -3.5099    2.1072   -4.9212 H   0  0  0  0  0  0  0  0  0  0  0  0
   -0.6496    1.7438   -8.0642 H   0  0  0  0  0  0  0  0  0  0  0  0
    1.1541    2.3347   -6.4969 H   0  0  0  0  0  0  0  0  0  0  0  0
   -4.2168    2.0128   -7.2400 H   0  0  0  0  0  0  0  0  0  0  0  0
   -3.0231    1.8608   -8.5516 H   0  0  0  0  0  0  0  0  0  0  0  0
   -4.4398    0.1982   -5.6635 H   0  0  0  0  0  0  0  0  0  0  0  0
   -2.5814   -2.2597   -7.5353 H   0  0  0  0  0  0  0  0  0  0  0  0
   -2.1636   -4.5549   -6.7696 H   0  0  0  0  0  0  0  0  0  0  0  0
   -3.0797   -5.3379   -4.6251 H   0  0  0  0  0  0  0  0  0  0  0  0
   -4.4121   -3.8282   -3.2213 H   0  0  0  0  0  0  0  0  0  0  0  0
   -6.4876   -2.3092   -5.7782 H   0  0  0  0  0  0  0  0  0  0  0  0
   -8.8134   -1.7877   -6.3840 H   0  0  0  0  0  0  0  0  0  0  0  0
  -10.0842   -0.1265   -5.0888 H   0  0  0  0  0  0  0  0  0  0  0  0
   -9.0421    1.0147   -3.1747 H   0  0  0  0  0  0  0  0  0  0  0  0
   -6.7206    0.5014   -2.5456 H   0  0  0  0  0  0  0  0  0  0  0  0
   -4.2776   -0.0634   -9.8894 O   0  5  0  0  0  0  0  0  0  0  0  0
  1  2  1  0  0  0  0
  1 45  1  0  0  0  0
  1 46  1  0  0  0  0
  1 47  1  0  0  0  0
  2  6  1  0  0  0  0
  2  3  2  0  0  0  0
  3  4  1  0  0  0  0
  3 16  1  0  0  0  0
  4  5  1  0  0  0  0
  4 13  1  0  0  0  0
  5  6  2  0  0  0  0
  5  7  1  0  0  0  0
  7 12  2  0  0  0  0
  7  8  1  0  0  0  0
  8  9  2  0  0  0  0
  8 48  1  0  0  0  0
  9 10  1  0  0  0  0
  9 49  1  0  0  0  0
 10 11  2  0  0  0  0
 10 50  1  0  0  0  0
 11 12  1  0  0  0  0
 11 51  1  0  0  0  0
 12 52  1  0  0  0  0
 13 14  1  0  0  0  0
 13 53  1  0  0  0  0
 13 54  1  0  0  0  0
 14 15  1  0  0  0  0
 15 55  1  0  0  0  0
 15 56  1  0  0  0  0
 15 57  1  0  0  0  0
 16 17  1  0  0  0  0
 16 58  1  0  0  0  0
 16 59  1  0  0  0  0
 17 18  1  0  0  0  0
 17 60  1  0  0  0  0
 17 61  1  0  0  0  0
 18 19  1  0  0  0  0
 19 24  2  0  0  0  0
 19 20  1  0  0  0  0
 20 21  2  0  0  0  0
 20 62  1  0  0  0  0
 21 22  1  0  0  0  0
 21 63  1  0  0  0  0
 22 23  2  0  0  0  0
 22 25  1  0  0  0  0
 23 24  1  0  0  0  0
 23 64  1  0  0  0  0
 24 65  1  0  0  0  0
 25 26  1  0  0  0  0
 25 66  1  0  0  0  0
 25 67  1  0  0  0  0
 26 27  1  0  0  0  0
 26 28  1  0  0  0  0
 26 30  1  0  0  0  0
 28 29  2  0  0  0  0
 28 78  1  0  0  0  0
 30 31  1  0  0  0  0
 30 68  1  0  0  0  0
 31 36  2  0  0  0  0
 31 32  1  0  0  0  0
 32 33  2  0  0  0  0
 32 69  1  0  0  0  0
 33 34  1  0  0  0  0
 33 70  1  0  0  0  0
 34 35  2  0  0  0  0
 34 71  1  0  0  0  0
 35 36  1  0  0  0  0
 35 72  1  0  0  0  0
 36 37  1  0  0  0  0
 37 38  2  0  0  0  0
 37 39  1  0  0  0  0
 39 44  2  0  0  0  0
 39 40  1  0  0  0  0
 40 41  2  0  0  0  0
 40 73  1  0  0  0  0
 41 42  1  0  0  0  0
 41 74  1  0  0  0  0
 42 43  2  0  0  0  0
 42 75  1  0  0  0  0
 43 44  1  0  0  0  0
 43 76  1  0  0  0  0
 44 77  1  0  0  0  0
M  CHG  1  78  -1
M  END
$$$$
ZINC04137606
  -OEChem-08230709403D

 72 76  0     1  0  0  0  0  0999 V2000
    3.3722    6.0251   12.4528 C   0  0  0  0  0  0  0  0  0  0  0  0
    3.5329    4.8981   11.5308 N   0  0  0  0  0  0  0  0  0  0  0  0
    3.5693    5.1337   10.0853 C   0  0  0  0  0  0  0  0  0  0  0  0
    2.1490    5.0615    9.5209 C   0  0  0  0  0  0  0  0  0  0  0  0
    1.3678    6.1304   10.0586 O   0  0  0  0  0  0  0  0  0  0  0  0
    0.0724    6.2110    9.6559 C   0  0  0  0  0  0  0  0  0  0  0  0
   -0.7435    7.2241   10.1384 C   0  0  0  0  0  0  0  0  0  0  0  0
   -2.0601    7.3036    9.7278 C   0  0  0  0  0  0  0  0  0  0  0  0
   -2.5648    6.3749    8.8364 C   0  0  0  0  0  0  0  0  0  0  0  0
   -1.7553    5.3610    8.3584 C   0  0  0  0  0  0  0  0  0  0  0  0
   -0.4365    5.2802    8.7619 C   0  0  0  0  0  0  0  0  0  0  0  0
   -4.0013    6.4643    8.3898 C   0  0  0  0  0  0  0  0  0  0  0  0
   -4.0924    7.3376    7.1368 C   0  0  2  0  0  0  0  0  0  0  0  0
   -3.6382    8.3081    7.3364 H   0  0  0  0  0  0  0  0  0  0  0  0
   -5.5394    7.5280    6.7613 C   0  0  0  0  0  0  0  0  0  0  0  0
   -5.9377    7.1561    5.6829 O   0  0  0  0  0  0  0  0  0  0  0  0
   -3.3836    6.6842    6.0336 N   0  0  0  0  0  0  0  0  0  0  0  0
   -2.8746    7.4437    4.9892 C   0  0  0  0  0  0  0  0  0  0  0  0
   -3.1322    8.8077    4.9270 C   0  0  0  0  0  0  0  0  0  0  0  0
   -2.6260    9.5602    3.8875 C   0  0  0  0  0  0  0  0  0  0  0  0
   -1.8572    8.9652    2.8987 C   0  0  0  0  0  0  0  0  0  0  0  0
   -1.5857    7.6161    2.9454 C   0  0  0  0  0  0  0  0  0  0  0  0
   -2.0964    6.8375    3.9889 C   0  0  0  0  0  0  0  0  0  0  0  0
   -1.8153    5.3925    4.0420 C   0  0  0  0  0  0  0  0  0  0  0  0
   -0.7194    4.9988    4.3923 O   0  0  0  0  0  0  0  0  0  0  0  0
   -2.8654    4.4211    3.6695 C   0  0  0  0  0  0  0  0  0  0  0  0
   -4.0855    4.8693    3.1583 C   0  0  0  0  0  0  0  0  0  0  0  0
   -5.0629    3.9598    2.8114 C   0  0  0  0  0  0  0  0  0  0  0  0
   -4.8371    2.6038    2.9631 C   0  0  0  0  0  0  0  0  0  0  0  0
   -3.6295    2.1488    3.4753 C   0  0  0  0  0  0  0  0  0  0  0  0
   -2.6412    3.0527    3.8269 C   0  0  0  0  0  0  0  0  0  0  0  0
   -3.4152    0.8152    3.6265 O   0  0  0  0  0  0  0  0  0  0  0  0
   -4.4779   -0.0601    3.2437 C   0  0  0  0  0  0  0  0  0  0  0  0
    3.6497    3.6178   12.0226 C   0  0  0  0  0  0  0  0  0  0  0  0
    3.7910    2.5430   11.2897 N   0  0  0  0  0  0  0  0  0  0  0  0
    3.8780    1.4619   12.1126 C   0  0  0  0  0  0  0  0  0  0  0  0
    4.0344    0.0929   11.8918 C   0  0  0  0  0  0  0  0  0  0  0  0
    4.0812   -0.7712   12.9638 C   0  0  0  0  0  0  0  0  0  0  0  0
    3.9739   -0.2883   14.2590 C   0  0  0  0  0  0  0  0  0  0  0  0
    3.8188    1.0634   14.4912 C   0  0  0  0  0  0  0  0  0  0  0  0
    3.7698    1.9462   13.4247 C   0  0  0  0  0  0  0  0  0  0  0  0
    3.6295    3.2883   13.3260 O   0  0  0  0  0  0  0  0  0  0  0  0
    2.3115    6.1948   12.6379 H   0  0  0  0  0  0  0  0  0  0  0  0
    3.8736    5.7990   13.3939 H   0  0  0  0  0  0  0  0  0  0  0  0
    3.8119    6.9202   12.0128 H   0  0  0  0  0  0  0  0  0  0  0  0
    4.1887    4.3739    9.6088 H   0  0  0  0  0  0  0  0  0  0  0  0
    3.9888    6.1203    9.8885 H   0  0  0  0  0  0  0  0  0  0  0  0
    1.6974    4.1080    9.7946 H   0  0  0  0  0  0  0  0  0  0  0  0
    2.1848    5.1482    8.4349 H   0  0  0  0  0  0  0  0  0  0  0  0
   -0.3497    7.9497   10.8347 H   0  0  0  0  0  0  0  0  0  0  0  0
   -2.6956    8.0920   10.1031 H   0  0  0  0  0  0  0  0  0  0  0  0
   -2.1532    4.6340    7.6659 H   0  0  0  0  0  0  0  0  0  0  0  0
    0.1967    4.4909    8.3846 H   0  0  0  0  0  0  0  0  0  0  0  0
   -4.6022    6.9059    9.1849 H   0  0  0  0  0  0  0  0  0  0  0  0
   -4.3746    5.4654    8.1644 H   0  0  0  0  0  0  0  0  0  0  0  0
   -3.2699    5.7209    6.0331 H   0  0  0  0  0  0  0  0  0  0  0  0
   -3.7298    9.2793    5.6932 H   0  0  0  0  0  0  0  0  0  0  0  0
   -2.8295   10.6200    3.8437 H   0  0  0  0  0  0  0  0  0  0  0  0
   -1.4654    9.5641    2.0899 H   0  0  0  0  0  0  0  0  0  0  0  0
   -0.9826    7.1590    2.1749 H   0  0  0  0  0  0  0  0  0  0  0  0
   -4.2638    5.9274    3.0351 H   0  0  0  0  0  0  0  0  0  0  0  0
   -6.0058    4.3076    2.4159 H   0  0  0  0  0  0  0  0  0  0  0  0
   -5.6044    1.8962    2.6855 H   0  0  0  0  0  0  0  0  0  0  0  0
   -1.6998    2.6998    4.2213 H   0  0  0  0  0  0  0  0  0  0  0  0
   -4.1769   -1.0936    3.4149 H   0  0  0  0  0  0  0  0  0  0  0  0
   -4.7032    0.0824    2.1868 H   0  0  0  0  0  0  0  0  0  0  0  0
   -5.3643    0.1633    3.8374 H   0  0  0  0  0  0  0  0  0  0  0  0
    4.1188   -0.2876   10.8846 H   0  0  0  0  0  0  0  0  0  0  0  0
    4.2026   -1.8308   12.7942 H   0  0  0  0  0  0  0  0  0  0  0  0
    4.0115   -0.9747   15.0919 H   0  0  0  0  0  0  0  0  0  0  0  0
    3.7355    1.4323   15.5029 H   0  0  0  0  0  0  0  0  0  0  0  0
   -6.3858    8.1107    7.6249 O   0  5  0  0  0  0  0  0  0  0  0  0
  1  2  1  0  0  0  0
  1 43  1  0  0  0  0
  1 44  1  0  0  0  0
  1 45  1  0  0  0  0
  2  3  1  0  0  0  0
  2 34  1  0  0  0  0
  3  4  1  0  0  0  0
  3 46  1  0  0  0  0
  3 47  1  0  0  0  0
  4  5  1  0  0  0  0
  4 48  1  0  0  0  0
  4 49  1  0  0  0  0
  5  6  1  0  0  0  0
  6 11  2  0  0  0  0
  6  7  1  0  0  0  0
  7  8  2  0  0  0  0
  7 50  1  0  0  0  0
  8  9  1  0  0  0  0
  8 51  1  0  0  0  0
  9 10  2  0  0  0  0
  9 12  1  0  0  0  0
 10 11  1  0  0  0  0
 10 52  1  0  0  0  0
 11 53  1  0  0  0  0
 12 13  1  0  0  0  0
 12 54  1  0  0  0  0
 12 55  1  0  0  0  0
 13 14  1  0  0  0  0
 13 15  1  0  0  0  0
 13 17  1  0  0  0  0
 15 16  2  0  0  0  0
 15 72  1  0  0  0  0
 17 18  1  0  0  0  0
 17 56  1  0  0  0  0
 18 23  2  0  0  0  0
 18 19  1  0  0  0  0
 19 20  2  0  0  0  0
 19 57  1  0  0  0  0
 20 21  1  0  0  0  0
 20 58  1  0  0  0  0
 21 22  2  0  0  0  0
 21 59  1  0  0  0  0
 22 23  1  0  0  0  0
 22 60  1  0  0  0  0
 23 24  1  0  0  0  0
 24 25  2  0  0  0  0
 24 26  1  0  0  0  0
 26 31  2  0  0  0  0
 26 27  1  0  0  0  0
 27 28  2  0  0  0  0
 27 61  1  0  0  0  0
 28 29  1  0  0  0  0
 28 62  1  0  0  0  0
 29 30  2  0  0  0  0
 29 63  1  0  0  0  0
 30 31  1  0  0  0  0
 30 32  1  0  0  0  0
 31 64  1  0  0  0  0
 32 33  1  0  0  0  0
 33 65  1  0  0  0  0
 33 66  1  0  0  0  0
 33 67  1  0  0  0  0
 34 42  1  0  0  0  0
 34 35  2  0  0  0  0
 35 36  1  0  0  0  0
 36 41  2  0  0  0  0
 36 37  1  0  0  0  0
 37 38  2  0  0  0  0
 37 68  1  0  0  0  0
 38 39  1  0  0  0  0
 38 69  1  0  0  0  0
 39 40  2  0  0  0  0
 39 70  1  0  0  0  0
 40 41  1  0  0  0  0
 40 71  1  0  0  0  0
 41 42  1  0  0  0  0
M  CHG  1  72  -1
M  END
$$$$
ZINC04137607
  -OEChem-08230709403D

 70 73  0     1  0  0  0  0  0999 V2000
    0.0466    1.1295    2.5067 C   0  0  0  0  0  0  0  0  0  0  0  0
   -0.6969    1.6302    1.2668 C   0  0  0  0  0  0  0  0  0  0  0  0
    0.0080    1.1196    0.0086 C   0  0  0  0  0  0  0  0  0  0  0  0
   -0.6976    1.5948   -1.1681 O   0  0  0  0  0  0  0  0  0  0  0  0
   -0.2018    1.2311   -2.3673 C   0  0  0  0  0  0  0  0  0  0  0  0
    0.7930    0.5357   -2.4280 O   0  0  0  0  0  0  0  0  0  0  0  0
   -0.8657    1.6763   -3.6044 C   0  0  0  0  0  0  0  0  0  0  0  0
   -2.0761    2.3729   -3.5418 C   0  0  0  0  0  0  0  0  0  0  0  0
   -2.6894    2.7902   -4.7022 C   0  0  0  0  0  0  0  0  0  0  0  0
   -2.1180    2.5148   -5.9348 C   0  0  0  0  0  0  0  0  0  0  0  0
   -0.9267    1.8239   -6.0142 C   0  0  0  0  0  0  0  0  0  0  0  0
   -0.2899    1.3987   -4.8545 C   0  0  0  0  0  0  0  0  0  0  0  0
    0.9094    0.7036   -4.9316 N   0  0  0  0  0  0  0  0  0  0  0  0
    1.5663    0.5178   -6.2278 C   0  0  2  0  0  0  0  0  0  0  0  0
    0.8108    0.3935   -7.0036 H   0  0  0  0  0  0  0  0  0  0  0  0
    2.4537   -0.7275   -6.1760 C   0  0  0  0  0  0  0  0  0  0  0  0
    1.5932   -1.9500   -5.9864 C   0  0  0  0  0  0  0  0  0  0  0  0
    1.2990   -2.3958   -4.7110 C   0  0  0  0  0  0  0  0  0  0  0  0
    0.5057   -3.5129   -4.5344 C   0  0  0  0  0  0  0  0  0  0  0  0
    0.0135   -4.1942   -5.6381 C   0  0  0  0  0  0  0  0  0  0  0  0
    0.3147   -3.7481   -6.9168 C   0  0  0  0  0  0  0  0  0  0  0  0
    1.1038   -2.6272   -7.0880 C   0  0  0  0  0  0  0  0  0  0  0  0
   -0.7629   -5.2964   -5.4671 O   0  0  0  0  0  0  0  0  0  0  0  0
   -1.0321   -5.6980   -4.1223 C   0  0  0  0  0  0  0  0  0  0  0  0
   -1.9146   -6.9477   -4.1303 C   0  0  0  0  0  0  0  0  0  0  0  0
   -2.1985   -7.3713   -2.7121 C   0  0  0  0  0  0  0  0  0  0  0  0
   -3.2360   -6.9668   -1.9570 C   0  0  0  0  0  0  0  0  0  0  0  0
   -3.1214   -7.5759   -0.7602 O   0  0  0  0  0  0  0  0  0  0  0  0
   -2.0186   -8.3437   -0.7966 C   0  0  0  0  0  0  0  0  0  0  0  0
   -1.4648   -8.2231   -1.9801 N   0  0  0  0  0  0  0  0  0  0  0  0
   -1.5172   -9.1871    0.3091 C   0  0  0  0  0  0  0  0  0  0  0  0
   -0.3571   -9.9449    0.1421 C   0  0  0  0  0  0  0  0  0  0  0  0
    0.1087  -10.7254    1.1799 C   0  0  0  0  0  0  0  0  0  0  0  0
   -0.5778  -10.7669    2.3804 C   0  0  0  0  0  0  0  0  0  0  0  0
   -1.7316  -10.0225    2.5506 C   0  0  0  0  0  0  0  0  0  0  0  0
   -2.2049   -9.2334    1.5227 C   0  0  0  0  0  0  0  0  0  0  0  0
   -4.3243   -6.0107   -2.3724 C   0  0  0  0  0  0  0  0  0  0  0  0
    2.4127    1.7251   -6.5397 C   0  0  0  0  0  0  0  0  0  0  0  0
    2.4620    2.6462   -5.7593 O   0  0  0  0  0  0  0  0  0  0  0  0
    1.0720    1.4989    2.4894 H   0  0  0  0  0  0  0  0  0  0  0  0
   -0.4556    1.4933    3.4031 H   0  0  0  0  0  0  0  0  0  0  0  0
    0.0532    0.0395    2.5109 H   0  0  0  0  0  0  0  0  0  0  0  0
   -0.7034    2.7202    1.2626 H   0  0  0  0  0  0  0  0  0  0  0  0
   -1.7222    1.2608    1.2841 H   0  0  0  0  0  0  0  0  0  0  0  0
    0.0146    0.0296    0.0128 H   0  0  0  0  0  0  0  0  0  0  0  0
    1.0334    1.4890   -0.0087 H   0  0  0  0  0  0  0  0  0  0  0  0
   -2.5280    2.5866   -2.5844 H   0  0  0  0  0  0  0  0  0  0  0  0
   -3.6226    3.3315   -4.6517 H   0  0  0  0  0  0  0  0  0  0  0  0
   -2.6089    2.8432   -6.8390 H   0  0  0  0  0  0  0  0  0  0  0  0
   -0.4882    1.6136   -6.9785 H   0  0  0  0  0  0  0  0  0  0  0  0
    1.3124    0.3409   -4.1273 H   0  0  0  0  0  0  0  0  0  0  0  0
    3.0103   -0.8161   -7.1091 H   0  0  0  0  0  0  0  0  0  0  0  0
    3.1518   -0.6418   -5.3433 H   0  0  0  0  0  0  0  0  0  0  0  0
    1.6861   -1.8677   -3.8522 H   0  0  0  0  0  0  0  0  0  0  0  0
    0.2726   -3.8582   -3.5380 H   0  0  0  0  0  0  0  0  0  0  0  0
   -0.0676   -4.2766   -7.7776 H   0  0  0  0  0  0  0  0  0  0  0  0
    1.3383   -2.2794   -8.0832 H   0  0  0  0  0  0  0  0  0  0  0  0
   -0.0934   -5.9193   -3.6144 H   0  0  0  0  0  0  0  0  0  0  0  0
   -1.5474   -4.8926   -3.5989 H   0  0  0  0  0  0  0  0  0  0  0  0
   -2.8533   -6.7265   -4.6382 H   0  0  0  0  0  0  0  0  0  0  0  0
   -1.3994   -7.7531   -4.6537 H   0  0  0  0  0  0  0  0  0  0  0  0
    0.1772   -9.9169   -0.7961 H   0  0  0  0  0  0  0  0  0  0  0  0
    1.0087  -11.3089    1.0535 H   0  0  0  0  0  0  0  0  0  0  0  0
   -0.2113  -11.3827    3.1884 H   0  0  0  0  0  0  0  0  0  0  0  0
   -2.2627  -10.0590    3.4903 H   0  0  0  0  0  0  0  0  0  0  0  0
   -3.1055   -8.6526    1.6569 H   0  0  0  0  0  0  0  0  0  0  0  0
   -5.1469   -6.5686   -2.8198 H   0  0  0  0  0  0  0  0  0  0  0  0
   -4.6856   -5.4694   -1.4980 H   0  0  0  0  0  0  0  0  0  0  0  0
   -3.9276   -5.3024   -3.0998 H   0  0  0  0  0  0  0  0  0  0  0  0
    3.1116    1.7771   -7.6845 O   0  5  0  0  0  0  0  0  0  0  0  0
  1  2  1  0  0  0  0
  1 40  1  0  0  0  0
  1 41  1  0  0  0  0
  1 42  1  0  0  0  0
  2  3  1  0  0  0  0
  2 43  1  0  0  0  0
  2 44  1  0  0  0  0
  3  4  1  0  0  0  0
  3 45  1  0  0  0  0
  3 46  1  0  0  0  0
  4  5  1  0  0  0  0
  5  6  2  0  0  0  0
  5  7  1  0  0  0  0
  7 12  2  0  0  0  0
  7  8  1  0  0  0  0
  8  9  2  0  0  0  0
  8 47  1  0  0  0  0
  9 10  1  0  0  0  0
  9 48  1  0  0  0  0
 10 11  2  0  0  0  0
 10 49  1  0  0  0  0
 11 12  1  0  0  0  0
 11 50  1  0  0  0  0
 12 13  1  0  0  0  0
 13 14  1  0  0  0  0
 13 51  1  0  0  0  0
 14 15  1  0  0  0  0
 14 16  1  0  0  0  0
 14 38  1  0  0  0  0
 16 17  1  0  0  0  0
 16 52  1  0  0  0  0
 16 53  1  0  0  0  0
 17 22  2  0  0  0  0
 17 18  1  0  0  0  0
 18 19  2  0  0  0  0
 18 54  1  0  0  0  0
 19 20  1  0  0  0  0
 19 55  1  0  0  0  0
 20 21  2  0  0  0  0
 20 23  1  0  0  0  0
 21 22  1  0  0  0  0
 21 56  1  0  0  0  0
 22 57  1  0  0  0  0
 23 24  1  0  0  0  0
 24 25  1  0  0  0  0
 24 58  1  0  0  0  0
 24 59  1  0  0  0  0
 25 26  1  0  0  0  0
 25 60  1  0  0  0  0
 25 61  1  0  0  0  0
 26 30  1  0  0  0  0
 26 27  2  0  0  0  0
 27 28  1  0  0  0  0
 27 37  1  0  0  0  0
 28 29  1  0  0  0  0
 29 30  2  0  0  0  0
 29 31  1  0  0  0  0
 31 36  2  0  0  0  0
 31 32  1  0  0  0  0
 32 33  2  0  0  0  0
 32 62  1  0  0  0  0
 33 34  1  0  0  0  0
 33 63  1  0  0  0  0
 34 35  2  0  0  0  0
 34 64  1  0  0  0  0
 35 36  1  0  0  0  0
 35 65  1  0  0  0  0
 36 66  1  0  0  0  0
 37 67  1  0  0  0  0
 37 68  1  0  0  0  0
 37 69  1  0  0  0  0
 38 39  2  0  0  0  0
 38 70  1  0  0  0  0
M  CHG  1  70  -1
M  END
$$$$
ZINC04137608
  -OEChem-08230709403D

 75 78  0     1  0  0  0  0  0999 V2000
   -4.3701    3.8926    0.0588 C   0  0  0  0  0  0  0  0  0  0  0  0
   -3.3684    2.7694   -0.0195 C   0  0  0  0  0  0  0  0  0  0  0  0
   -3.5733    1.4344   -0.1191 C   0  0  0  0  0  0  0  0  0  0  0  0
   -2.5218    0.6389   -0.1787 N   0  0  0  0  0  0  0  0  0  0  0  0
   -1.2956    1.1238   -0.1322 C   0  0  0  0  0  0  0  0  0  0  0  0
   -1.5827    2.8318   -0.0072 S   0  0  0  0  0  0  0  0  0  0  0  0
   -0.0882    0.4447   -0.1776 N   0  0  0  0  0  0  0  0  0  0  0  0
    1.1729    1.1882   -0.1233 C   0  0  0  0  0  0  0  0  0  0  0  0
    2.3460    0.2087   -0.1968 C   0  0  0  0  0  0  0  0  0  0  0  0
    3.6631    0.9852   -0.1400 C   0  0  0  0  0  0  0  0  0  0  0  0
    4.7588    0.0704   -0.2087 O   0  0  0  0  0  0  0  0  0  0  0  0
    6.0425    0.6965   -0.1631 C   0  0  0  0  0  0  0  0  0  0  0  0
   -4.9701    0.8705   -0.1673 C   0  0  0  0  0  0  0  0  0  0  0  0
   -5.4360    0.7860   -1.6221 C   0  0  0  0  0  0  0  0  0  0  0  0
   -6.7604    0.2513   -1.6679 O   0  0  0  0  0  0  0  0  0  0  0  0
   -7.3266    0.1097   -2.8952 C   0  0  0  0  0  0  0  0  0  0  0  0
   -6.6240    0.4831   -4.0317 C   0  0  0  0  0  0  0  0  0  0  0  0
   -7.1998    0.3332   -5.2785 C   0  0  0  0  0  0  0  0  0  0  0  0
   -8.4790   -0.1787   -5.3935 C   0  0  0  0  0  0  0  0  0  0  0  0
   -9.1834   -0.5462   -4.2620 C   0  0  0  0  0  0  0  0  0  0  0  0
   -8.6102   -0.4032   -3.0132 C   0  0  0  0  0  0  0  0  0  0  0  0
   -9.1068   -0.3358   -6.7545 C   0  0  0  0  0  0  0  0  0  0  0  0
   -9.8609    0.9446   -7.1192 C   0  0  2  0  0  0  0  0  0  0  0  0
  -10.5792    1.1794   -6.3337 H   0  0  0  0  0  0  0  0  0  0  0  0
  -10.5898    0.7443   -8.4229 C   0  0  0  0  0  0  0  0  0  0  0  0
  -10.3398    1.4519   -9.3697 O   0  0  0  0  0  0  0  0  0  0  0  0
   -8.9090    2.0496   -7.2567 N   0  0  0  0  0  0  0  0  0  0  0  0
   -9.3324    3.3580   -7.0678 C   0  0  0  0  0  0  0  0  0  0  0  0
  -10.6785    3.6337   -6.8612 C   0  0  0  0  0  0  0  0  0  0  0  0
  -11.0960    4.9343   -6.6680 C   0  0  0  0  0  0  0  0  0  0  0  0
  -10.1815    5.9764   -6.6893 C   0  0  0  0  0  0  0  0  0  0  0  0
   -8.8440    5.7246   -6.8981 C   0  0  0  0  0  0  0  0  0  0  0  0
   -8.4031    4.4113   -7.0900 C   0  0  0  0  0  0  0  0  0  0  0  0
   -6.9738    4.1344   -7.3144 C   0  0  0  0  0  0  0  0  0  0  0  0
   -6.1932    4.1735   -6.3827 O   0  0  0  0  0  0  0  0  0  0  0  0
   -6.4883    3.8089   -8.6721 C   0  0  0  0  0  0  0  0  0  0  0  0
   -7.3598    3.8686   -9.7616 C   0  0  0  0  0  0  0  0  0  0  0  0
   -6.8987    3.5692  -11.0266 C   0  0  0  0  0  0  0  0  0  0  0  0
   -5.5787    3.1993  -11.2158 C   0  0  0  0  0  0  0  0  0  0  0  0
   -4.7112    3.1326  -10.1398 C   0  0  0  0  0  0  0  0  0  0  0  0
   -5.1575    3.4349   -8.8702 C   0  0  0  0  0  0  0  0  0  0  0  0
   -3.8438    4.8444    0.1316 H   0  0  0  0  0  0  0  0  0  0  0  0
   -4.9913    3.8884   -0.8368 H   0  0  0  0  0  0  0  0  0  0  0  0
   -4.9996    3.7573    0.9383 H   0  0  0  0  0  0  0  0  0  0  0  0
   -0.0782   -0.5226   -0.2494 H   0  0  0  0  0  0  0  0  0  0  0  0
    1.2236    1.8795   -0.9645 H   0  0  0  0  0  0  0  0  0  0  0  0
    1.2248    1.7478    0.8106 H   0  0  0  0  0  0  0  0  0  0  0  0
    2.2953   -0.4827    0.6444 H   0  0  0  0  0  0  0  0  0  0  0  0
    2.2941   -0.3509   -1.1307 H   0  0  0  0  0  0  0  0  0  0  0  0
    3.7138    1.6766   -0.9812 H   0  0  0  0  0  0  0  0  0  0  0  0
    3.7150    1.5449    0.7939 H   0  0  0  0  0  0  0  0  0  0  0  0
    6.8203   -0.0649   -0.2201 H   0  0  0  0  0  0  0  0  0  0  0  0
    6.1425    1.3819   -1.0047 H   0  0  0  0  0  0  0  0  0  0  0  0
    6.1437    1.2502    0.7704 H   0  0  0  0  0  0  0  0  0  0  0  0
   -4.9750   -0.1260    0.2743 H   0  0  0  0  0  0  0  0  0  0  0  0
   -5.6434    1.5195    0.3927 H   0  0  0  0  0  0  0  0  0  0  0  0
   -5.4310    1.7825   -2.0637 H   0  0  0  0  0  0  0  0  0  0  0  0
   -4.7627    0.1371   -2.1822 H   0  0  0  0  0  0  0  0  0  0  0  0
   -5.6263    0.8868   -3.9421 H   0  0  0  0  0  0  0  0  0  0  0  0
   -6.6516    0.6195   -6.1639 H   0  0  0  0  0  0  0  0  0  0  0  0
  -10.1826   -0.9457   -4.3544 H   0  0  0  0  0  0  0  0  0  0  0  0
   -9.1607   -0.6907   -2.1297 H   0  0  0  0  0  0  0  0  0  0  0  0
   -8.3284   -0.5222   -7.4944 H   0  0  0  0  0  0  0  0  0  0  0  0
   -9.8021   -1.1751   -6.7392 H   0  0  0  0  0  0  0  0  0  0  0  0
   -7.9828    1.8670   -7.4797 H   0  0  0  0  0  0  0  0  0  0  0  0
  -11.3982    2.8285   -6.8475 H   0  0  0  0  0  0  0  0  0  0  0  0
  -12.1428    5.1427   -6.5030 H   0  0  0  0  0  0  0  0  0  0  0  0
  -10.5202    6.9912   -6.5417 H   0  0  0  0  0  0  0  0  0  0  0  0
   -8.1362    6.5402   -6.9134 H   0  0  0  0  0  0  0  0  0  0  0  0
   -8.3914    4.1525   -9.6146 H   0  0  0  0  0  0  0  0  0  0  0  0
   -7.5705    3.6189  -11.8708 H   0  0  0  0  0  0  0  0  0  0  0  0
   -5.2241    2.9612  -12.2078 H   0  0  0  0  0  0  0  0  0  0  0  0
   -3.6821    2.8435  -10.2945 H   0  0  0  0  0  0  0  0  0  0  0  0
   -4.4795    3.3821   -8.0312 H   0  0  0  0  0  0  0  0  0  0  0  0
  -11.5168   -0.2204   -8.5322 O   0  5  0  0  0  0  0  0  0  0  0  0
  1  2  1  0  0  0  0
  1 42  1  0  0  0  0
  1 43  1  0  0  0  0
  1 44  1  0  0  0  0
  2  6  1  0  0  0  0
  2  3  2  0  0  0  0
  3  4  1  0  0  0  0
  3 13  1  0  0  0  0
  4  5  2  0  0  0  0
  5  6  1  0  0  0  0
  5  7  1  0  0  0  0
  7  8  1  0  0  0  0
  7 45  1  0  0  0  0
  8  9  1  0  0  0  0
  8 46  1  0  0  0  0
  8 47  1  0  0  0  0
  9 10  1  0  0  0  0
  9 48  1  0  0  0  0
  9 49  1  0  0  0  0
 10 11  1  0  0  0  0
 10 50  1  0  0  0  0
 10 51  1  0  0  0  0
 11 12  1  0  0  0  0
 12 52  1  0  0  0  0
 12 53  1  0  0  0  0
 12 54  1  0  0  0  0
 13 14  1  0  0  0  0
 13 55  1  0  0  0  0
 13 56  1  0  0  0  0
 14 15  1  0  0  0  0
 14 57  1  0  0  0  0
 14 58  1  0  0  0  0
 15 16  1  0  0  0  0
 16 21  2  0  0  0  0
 16 17  1  0  0  0  0
 17 18  2  0  0  0  0
 17 59  1  0  0  0  0
 18 19  1  0  0  0  0
 18 60  1  0  0  0  0
 19 20  2  0  0  0  0
 19 22  1  0  0  0  0
 20 21  1  0  0  0  0
 20 61  1  0  0  0  0
 21 62  1  0  0  0  0
 22 23  1  0  0  0  0
 22 63  1  0  0  0  0
 22 64  1  0  0  0  0
 23 24  1  0  0  0  0
 23 25  1  0  0  0  0
 23 27  1  0  0  0  0
 25 26  2  0  0  0  0
 25 75  1  0  0  0  0
 27 28  1  0  0  0  0
 27 65  1  0  0  0  0
 28 33  2  0  0  0  0
 28 29  1  0  0  0  0
 29 30  2  0  0  0  0
 29 66  1  0  0  0  0
 30 31  1  0  0  0  0
 30 67  1  0  0  0  0
 31 32  2  0  0  0  0
 31 68  1  0  0  0  0
 32 33  1  0  0  0  0
 32 69  1  0  0  0  0
 33 34  1  0  0  0  0
 34 35  2  0  0  0  0
 34 36  1  0  0  0  0
 36 41  2  0  0  0  0
 36 37  1  0  0  0  0
 37 38  2  0  0  0  0
 37 70  1  0  0  0  0
 38 39  1  0  0  0  0
 38 71  1  0  0  0  0
 39 40  2  0  0  0  0
 39 72  1  0  0  0  0
 40 41  1  0  0  0  0
 40 73  1  0  0  0  0
 41 74  1  0  0  0  0
M  CHG  1  75  -1
M  END
$$$$
ZINC04137609
  -OEChem-08230709403D

 71 75  0     1  0  0  0  0  0999 V2000
   -2.4999    1.3972   -1.8207 C   0  0  0  0  0  0  0  0  0  0  0  0
   -1.8158    0.1068   -1.7055 N   0  0  0  0  0  0  0  0  0  0  0  0
   -1.2318   -0.3009   -0.4253 C   0  0  0  0  0  0  0  0  0  0  0  0
    0.2171    0.1847   -0.3481 C   0  0  0  0  0  0  0  0  0  0  0  0
    0.2407    1.6134   -0.3364 O   0  0  0  0  0  0  0  0  0  0  0  0
    1.4600    2.2099   -0.2700 C   0  0  0  0  0  0  0  0  0  0  0  0
    2.6098    1.4358   -0.2114 C   0  0  0  0  0  0  0  0  0  0  0  0
    3.8484    2.0446   -0.1502 C   0  0  0  0  0  0  0  0  0  0  0  0
    3.9421    3.4240   -0.1349 C   0  0  0  0  0  0  0  0  0  0  0  0
    2.7973    4.1976   -0.1874 C   0  0  0  0  0  0  0  0  0  0  0  0
    1.5567    3.5937   -0.2549 C   0  0  0  0  0  0  0  0  0  0  0  0
    5.2942    4.0853   -0.0613 C   0  0  0  0  0  0  0  0  0  0  0  0
    5.6785    4.2986    1.4042 C   0  0  2  0  0  0  0  0  0  0  0  0
    4.8920    4.8603    1.9081 H   0  0  0  0  0  0  0  0  0  0  0  0
    6.9717    5.0690    1.4774 C   0  0  0  0  0  0  0  0  0  0  0  0
    7.9349    4.5824    2.0208 O   0  0  0  0  0  0  0  0  0  0  0  0
    5.8467    2.9989    2.0591 N   0  0  0  0  0  0  0  0  0  0  0  0
    5.6809    2.8873    3.4327 C   0  0  0  0  0  0  0  0  0  0  0  0
    5.4675    4.0224    4.2052 C   0  0  0  0  0  0  0  0  0  0  0  0
    5.3026    3.9087    5.5701 C   0  0  0  0  0  0  0  0  0  0  0  0
    5.3481    2.6653    6.1822 C   0  0  0  0  0  0  0  0  0  0  0  0
    5.5580    1.5285    5.4343 C   0  0  0  0  0  0  0  0  0  0  0  0
    5.7223    1.6254    4.0488 C   0  0  0  0  0  0  0  0  0  0  0  0
    5.9422    0.4130    3.2416 C   0  0  0  0  0  0  0  0  0  0  0  0
    5.0123   -0.3315    2.9970 O   0  0  0  0  0  0  0  0  0  0  0  0
    7.2931    0.1014    2.7290 C   0  0  0  0  0  0  0  0  0  0  0  0
    8.3830    0.8933    3.0973 C   0  0  0  0  0  0  0  0  0  0  0  0
    9.6413    0.5945    2.6184 C   0  0  0  0  0  0  0  0  0  0  0  0
    9.8239   -0.4816    1.7674 C   0  0  0  0  0  0  0  0  0  0  0  0
    8.7478   -1.2674    1.3947 C   0  0  0  0  0  0  0  0  0  0  0  0
    7.4843   -0.9825    1.8698 C   0  0  0  0  0  0  0  0  0  0  0  0
    8.9562   -2.4367    0.4673 C   0  0  0  0  0  0  0  0  0  0  0  0
    8.8075   -2.0133   -0.8578 F   0  0  0  0  0  0  0  0  0  0  0  0
   10.2435   -2.9532    0.6501 F   0  0  0  0  0  0  0  0  0  0  0  0
    8.0113   -3.4293    0.7486 F   0  0  0  0  0  0  0  0  0  0  0  0
   -1.7218   -0.7224   -2.8002 C   0  0  0  0  0  0  0  0  0  0  0  0
   -1.1297   -1.8893   -2.8081 N   0  0  0  0  0  0  0  0  0  0  0  0
   -1.2359   -2.4241   -4.0557 C   0  0  0  0  0  0  0  0  0  0  0  0
   -0.8036   -3.6193   -4.6317 C   0  0  0  0  0  0  0  0  0  0  0  0
   -1.0683   -3.8727   -5.9598 C   0  0  0  0  0  0  0  0  0  0  0  0
   -1.7609   -2.9477   -6.7258 C   0  0  0  0  0  0  0  0  0  0  0  0
   -2.1940   -1.7616   -6.1683 C   0  0  0  0  0  0  0  0  0  0  0  0
   -1.9363   -1.4908   -4.8344 C   0  0  0  0  0  0  0  0  0  0  0  0
   -2.2199   -0.4492   -4.0188 O   0  0  0  0  0  0  0  0  0  0  0  0
   -1.7823    2.1642   -2.1117 H   0  0  0  0  0  0  0  0  0  0  0  0
   -3.2830    1.3271   -2.5757 H   0  0  0  0  0  0  0  0  0  0  0  0
   -2.9435    1.6602   -0.8604 H   0  0  0  0  0  0  0  0  0  0  0  0
   -1.2555   -1.3877   -0.3448 H   0  0  0  0  0  0  0  0  0  0  0  0
   -1.8056    0.1366    0.3916 H   0  0  0  0  0  0  0  0  0  0  0  0
    0.7694   -0.1808   -1.2138 H   0  0  0  0  0  0  0  0  0  0  0  0
    0.6790   -0.1938    0.5638 H   0  0  0  0  0  0  0  0  0  0  0  0
    2.5369    0.3583   -0.2185 H   0  0  0  0  0  0  0  0  0  0  0  0
    4.7441    1.4425   -0.1098 H   0  0  0  0  0  0  0  0  0  0  0  0
    2.8731    5.2749   -0.1753 H   0  0  0  0  0  0  0  0  0  0  0  0
    0.6628    4.1984   -0.2963 H   0  0  0  0  0  0  0  0  0  0  0  0
    6.0367    3.4489   -0.5427 H   0  0  0  0  0  0  0  0  0  0  0  0
    5.2559    5.0482   -0.5707 H   0  0  0  0  0  0  0  0  0  0  0  0
    6.0738    2.2164    1.5327 H   0  0  0  0  0  0  0  0  0  0  0  0
    5.4310    4.9948    3.7366 H   0  0  0  0  0  0  0  0  0  0  0  0
    5.1367    4.7941    6.1659 H   0  0  0  0  0  0  0  0  0  0  0  0
    5.2177    2.5881    7.2515 H   0  0  0  0  0  0  0  0  0  0  0  0
    5.5924    0.5627    5.9166 H   0  0  0  0  0  0  0  0  0  0  0  0
    8.2412    1.7358    3.7580 H   0  0  0  0  0  0  0  0  0  0  0  0
   10.4856    1.2040    2.9050 H   0  0  0  0  0  0  0  0  0  0  0  0
   10.8108   -0.7088    1.3923 H   0  0  0  0  0  0  0  0  0  0  0  0
    6.6452   -1.5966    1.5781 H   0  0  0  0  0  0  0  0  0  0  0  0
   -0.2641   -4.3430   -4.0388 H   0  0  0  0  0  0  0  0  0  0  0  0
   -0.7346   -4.7976   -6.4067 H   0  0  0  0  0  0  0  0  0  0  0  0
   -1.9626   -3.1565   -7.7661 H   0  0  0  0  0  0  0  0  0  0  0  0
   -2.7327   -1.0455   -6.7713 H   0  0  0  0  0  0  0  0  0  0  0  0
    7.0534    6.2958    0.9389 O   0  5  0  0  0  0  0  0  0  0  0  0
  1  2  1  0  0  0  0
  1 45  1  0  0  0  0
  1 46  1  0  0  0  0
  1 47  1  0  0  0  0
  2  3  1  0  0  0  0
  2 36  1  0  0  0  0
  3  4  1  0  0  0  0
  3 48  1  0  0  0  0
  3 49  1  0  0  0  0
  4  5  1  0  0  0  0
  4 50  1  0  0  0  0
  4 51  1  0  0  0  0
  5  6  1  0  0  0  0
  6 11  2  0  0  0  0
  6  7  1  0  0  0  0
  7  8  2  0  0  0  0
  7 52  1  0  0  0  0
  8  9  1  0  0  0  0
  8 53  1  0  0  0  0
  9 10  2  0  0  0  0
  9 12  1  0  0  0  0
 10 11  1  0  0  0  0
 10 54  1  0  0  0  0
 11 55  1  0  0  0  0
 12 13  1  0  0  0  0
 12 56  1  0  0  0  0
 12 57  1  0  0  0  0
 13 14  1  0  0  0  0
 13 15  1  0  0  0  0
 13 17  1  0  0  0  0
 15 16  2  0  0  0  0
 15 71  1  0  0  0  0
 17 18  1  0  0  0  0
 17 58  1  0  0  0  0
 18 23  2  0  0  0  0
 18 19  1  0  0  0  0
 19 20  2  0  0  0  0
 19 59  1  0  0  0  0
 20 21  1  0  0  0  0
 20 60  1  0  0  0  0
 21 22  2  0  0  0  0
 21 61  1  0  0  0  0
 22 23  1  0  0  0  0
 22 62  1  0  0  0  0
 23 24  1  0  0  0  0
 24 25  2  0  0  0  0
 24 26  1  0  0  0  0
 26 31  2  0  0  0  0
 26 27  1  0  0  0  0
 27 28  2  0  0  0  0
 27 63  1  0  0  0  0
 28 29  1  0  0  0  0
 28 64  1  0  0  0  0
 29 30  2  0  0  0  0
 29 65  1  0  0  0  0
 30 31  1  0  0  0  0
 30 32  1  0  0  0  0
 31 66  1  0  0  0  0
 32 33  1  0  0  0  0
 32 34  1  0  0  0  0
 32 35  1  0  0  0  0
 36 44  1  0  0  0  0
 36 37  2  0  0  0  0
 37 38  1  0  0  0  0
 38 43  2  0  0  0  0
 38 39  1  0  0  0  0
 39 40  2  0  0  0  0
 39 67  1  0  0  0  0
 40 41  1  0  0  0  0
 40 68  1  0  0  0  0
 41 42  2  0  0  0  0
 41 69  1  0  0  0  0
 42 43  1  0  0  0  0
 42 70  1  0  0  0  0
 43 44  1  0  0  0  0
M  CHG  1  71  -1
M  END
$$$$
ZINC04137610
  -OEChem-08230709403D

 71 75  0     1  0  0  0  0  0999 V2000
   -4.5704    3.4361   -0.3667 C   0  0  0  0  0  0  0  0  0  0  0  0
   -4.2262    2.0139   -0.4386 N   0  0  0  0  0  0  0  0  0  0  0  0
   -3.4990    1.3796    0.6637 C   0  0  0  0  0  0  0  0  0  0  0  0
   -1.9938    1.4938    0.4141 C   0  0  0  0  0  0  0  0  0  0  0  0
   -1.6082    2.8694    0.4488 O   0  0  0  0  0  0  0  0  0  0  0  0
   -0.2937    3.1470    0.2439 C   0  0  0  0  0  0  0  0  0  0  0  0
    0.6074    2.1162    0.0198 C   0  0  0  0  0  0  0  0  0  0  0  0
    1.9420    2.4015   -0.1944 C   0  0  0  0  0  0  0  0  0  0  0  0
    2.3820    3.7121   -0.1734 C   0  0  0  0  0  0  0  0  0  0  0  0
    1.4869    4.7408    0.0554 C   0  0  0  0  0  0  0  0  0  0  0  0
    0.1502    4.4612    0.2640 C   0  0  0  0  0  0  0  0  0  0  0  0
    3.8396    4.0200   -0.4006 C   0  0  0  0  0  0  0  0  0  0  0  0
    4.5760    4.0203    0.9405 C   0  0  1  0  0  0  0  0  0  0  0  0
    4.4064    3.0709    1.4484 H   0  0  0  0  0  0  0  0  0  0  0  0
    6.0525    4.2061    0.7029 C   0  0  0  0  0  0  0  0  0  0  0  0
    6.6263    5.1564    1.1801 O   0  0  0  0  0  0  0  0  0  0  0  0
    4.0737    5.1161    1.7731 N   0  0  0  0  0  0  0  0  0  0  0  0
    4.1707    5.0380    3.1556 C   0  0  0  0  0  0  0  0  0  0  0  0
    4.8432    3.9772    3.7500 C   0  0  0  0  0  0  0  0  0  0  0  0
    4.9378    3.9016    5.1242 C   0  0  0  0  0  0  0  0  0  0  0  0
    4.3653    4.8800    5.9228 C   0  0  0  0  0  0  0  0  0  0  0  0
    3.6950    5.9394    5.3532 C   0  0  0  0  0  0  0  0  0  0  0  0
    3.5944    6.0340    3.9615 C   0  0  0  0  0  0  0  0  0  0  0  0
    2.8841    7.1677    3.3449 C   0  0  0  0  0  0  0  0  0  0  0  0
    1.6693    7.2130    3.3748 O   0  0  0  0  0  0  0  0  0  0  0  0
    3.6481    8.2503    2.6897 C   0  0  0  0  0  0  0  0  0  0  0  0
    5.0444    8.2417    2.7209 C   0  0  0  0  0  0  0  0  0  0  0  0
    5.7509    9.2521    2.1030 C   0  0  0  0  0  0  0  0  0  0  0  0
    5.0794   10.2788    1.4624 C   0  0  0  0  0  0  0  0  0  0  0  0
    3.6962   10.2964    1.4322 C   0  0  0  0  0  0  0  0  0  0  0  0
    2.9770    9.2892    2.0417 C   0  0  0  0  0  0  0  0  0  0  0  0
    1.4705    9.3105    2.0085 C   0  0  0  0  0  0  0  0  0  0  0  0
    1.0354   10.4403    1.3077 F   0  0  0  0  0  0  0  0  0  0  0  0
    1.0017    8.1569    1.3707 F   0  0  0  0  0  0  0  0  0  0  0  0
    0.9759    9.3539    3.3165 F   0  0  0  0  0  0  0  0  0  0  0  0
   -4.5862    1.2736   -1.5418 C   0  0  0  0  0  0  0  0  0  0  0  0
   -4.3246    0.0025   -1.7097 N   0  0  0  0  0  0  0  0  0  0  0  0
   -4.8322   -0.3928   -2.9096 C   0  0  0  0  0  0  0  0  0  0  0  0
   -4.8525   -1.6089   -3.5938 C   0  0  0  0  0  0  0  0  0  0  0  0
   -5.4562   -1.6875   -4.8296 C   0  0  0  0  0  0  0  0  0  0  0  0
   -6.0428   -0.5664   -5.3963 C   0  0  0  0  0  0  0  0  0  0  0  0
   -6.0297    0.6425   -4.7302 C   0  0  0  0  0  0  0  0  0  0  0  0
   -5.4269    0.7392   -3.4866 C   0  0  0  0  0  0  0  0  0  0  0  0
   -5.2530    1.7523   -2.6068 O   0  0  0  0  0  0  0  0  0  0  0  0
   -3.7638    4.0274   -0.8001 H   0  0  0  0  0  0  0  0  0  0  0  0
   -5.4911    3.6156   -0.9218 H   0  0  0  0  0  0  0  0  0  0  0  0
   -4.7122    3.7234    0.6751 H   0  0  0  0  0  0  0  0  0  0  0  0
   -3.7783    0.3279    0.7256 H   0  0  0  0  0  0  0  0  0  0  0  0
   -3.7509    1.8782    1.5997 H   0  0  0  0  0  0  0  0  0  0  0  0
   -1.7546    1.0739   -0.5629 H   0  0  0  0  0  0  0  0  0  0  0  0
   -1.4548    0.9458    1.1869 H   0  0  0  0  0  0  0  0  0  0  0  0
    0.2650    1.0920    0.0081 H   0  0  0  0  0  0  0  0  0  0  0  0
    2.6431    1.5998   -0.3740 H   0  0  0  0  0  0  0  0  0  0  0  0
    1.8330    5.7637    0.0714 H   0  0  0  0  0  0  0  0  0  0  0  0
   -0.5486    5.2651    0.4423 H   0  0  0  0  0  0  0  0  0  0  0  0
    4.2736    3.2624   -1.0532 H   0  0  0  0  0  0  0  0  0  0  0  0
    3.9354    5.0001   -0.8680 H   0  0  0  0  0  0  0  0  0  0  0  0
    3.6733    5.8962    1.3583 H   0  0  0  0  0  0  0  0  0  0  0  0
    5.2920    3.2109    3.1354 H   0  0  0  0  0  0  0  0  0  0  0  0
    5.4616    3.0751    5.5811 H   0  0  0  0  0  0  0  0  0  0  0  0
    4.4458    4.8109    6.9976 H   0  0  0  0  0  0  0  0  0  0  0  0
    3.2511    6.6984    5.9803 H   0  0  0  0  0  0  0  0  0  0  0  0
    5.5696    7.4434    3.2242 H   0  0  0  0  0  0  0  0  0  0  0  0
    6.8307    9.2445    2.1229 H   0  0  0  0  0  0  0  0  0  0  0  0
    5.6375   11.0702    0.9843 H   0  0  0  0  0  0  0  0  0  0  0  0
    3.1784   11.1005    0.9306 H   0  0  0  0  0  0  0  0  0  0  0  0
   -4.3972   -2.4849   -3.1560 H   0  0  0  0  0  0  0  0  0  0  0  0
   -5.4729   -2.6282   -5.3600 H   0  0  0  0  0  0  0  0  0  0  0  0
   -6.5129   -0.6393   -6.3659 H   0  0  0  0  0  0  0  0  0  0  0  0
   -6.4883    1.5117   -5.1779 H   0  0  0  0  0  0  0  0  0  0  0  0
    6.7301    3.3160   -0.0389 O   0  5  0  0  0  0  0  0  0  0  0  0
  1  2  1  0  0  0  0
  1 45  1  0  0  0  0
  1 46  1  0  0  0  0
  1 47  1  0  0  0  0
  2  3  1  0  0  0  0
  2 36  1  0  0  0  0
  3  4  1  0  0  0  0
  3 48  1  0  0  0  0
  3 49  1  0  0  0  0
  4  5  1  0  0  0  0
  4 50  1  0  0  0  0
  4 51  1  0  0  0  0
  5  6  1  0  0  0  0
  6 11  2  0  0  0  0
  6  7  1  0  0  0  0
  7  8  2  0  0  0  0
  7 52  1  0  0  0  0
  8  9  1  0  0  0  0
  8 53  1  0  0  0  0
  9 10  2  0  0  0  0
  9 12  1  0  0  0  0
 10 11  1  0  0  0  0
 10 54  1  0  0  0  0
 11 55  1  0  0  0  0
 12 13  1  0  0  0  0
 12 56  1  0  0  0  0
 12 57  1  0  0  0  0
 13 14  1  0  0  0  0
 13 15  1  0  0  0  0
 13 17  1  0  0  0  0
 15 16  2  0  0  0  0
 15 71  1  0  0  0  0
 17 18  1  0  0  0  0
 17 58  1  0  0  0  0
 18 23  2  0  0  0  0
 18 19  1  0  0  0  0
 19 20  2  0  0  0  0
 19 59  1  0  0  0  0
 20 21  1  0  0  0  0
 20 60  1  0  0  0  0
 21 22  2  0  0  0  0
 21 61  1  0  0  0  0
 22 23  1  0  0  0  0
 22 62  1  0  0  0  0
 23 24  1  0  0  0  0
 24 25  2  0  0  0  0
 24 26  1  0  0  0  0
 26 31  2  0  0  0  0
 26 27  1  0  0  0  0
 27 28  2  0  0  0  0
 27 63  1  0  0  0  0
 28 29  1  0  0  0  0
 28 64  1  0  0  0  0
 29 30  2  0  0  0  0
 29 65  1  0  0  0  0
 30 31  1  0  0  0  0
 30 66  1  0  0  0  0
 31 32  1  0  0  0  0
 32 33  1  0  0  0  0
 32 34  1  0  0  0  0
 32 35  1  0  0  0  0
 36 44  1  0  0  0  0
 36 37  2  0  0  0  0
 37 38  1  0  0  0  0
 38 43  2  0  0  0  0
 38 39  1  0  0  0  0
 39 40  2  0  0  0  0
 39 67  1  0  0  0  0
 40 41  1  0  0  0  0
 40 68  1  0  0  0  0
 41 42  2  0  0  0  0
 41 69  1  0  0  0  0
 42 43  1  0  0  0  0
 42 70  1  0  0  0  0
 43 44  1  0  0  0  0
M  CHG  1  71  -1
M  END
$$$$
ZINC04137611
  -OEChem-08230709403D

 67 70  0     1  0  0  0  0  0999 V2000
   -0.6969    1.6302    1.2668 C   0  0  0  0  0  0  0  0  0  0  0  0
    0.0080    1.1196    0.0086 C   0  0  0  0  0  0  0  0  0  0  0  0
   -0.6976    1.5948   -1.1681 O   0  0  0  0  0  0  0  0  0  0  0  0
   -0.2018    1.2311   -2.3673 C   0  0  0  0  0  0  0  0  0  0  0  0
    0.7930    0.5357   -2.4280 O   0  0  0  0  0  0  0  0  0  0  0  0
   -0.8657    1.6763   -3.6044 C   0  0  0  0  0  0  0  0  0  0  0  0
   -2.0761    2.3729   -3.5418 C   0  0  0  0  0  0  0  0  0  0  0  0
   -2.6894    2.7902   -4.7022 C   0  0  0  0  0  0  0  0  0  0  0  0
   -2.1180    2.5148   -5.9348 C   0  0  0  0  0  0  0  0  0  0  0  0
   -0.9267    1.8239   -6.0142 C   0  0  0  0  0  0  0  0  0  0  0  0
   -0.2899    1.3987   -4.8545 C   0  0  0  0  0  0  0  0  0  0  0  0
    0.9094    0.7036   -4.9316 N   0  0  0  0  0  0  0  0  0  0  0  0
    1.5663    0.5178   -6.2278 C   0  0  2  0  0  0  0  0  0  0  0  0
    0.8108    0.3935   -7.0036 H   0  0  0  0  0  0  0  0  0  0  0  0
    2.4537   -0.7275   -6.1760 C   0  0  0  0  0  0  0  0  0  0  0  0
    1.5932   -1.9500   -5.9864 C   0  0  0  0  0  0  0  0  0  0  0  0
    1.2990   -2.3958   -4.7110 C   0  0  0  0  0  0  0  0  0  0  0  0
    0.5057   -3.5129   -4.5344 C   0  0  0  0  0  0  0  0  0  0  0  0
    0.0135   -4.1942   -5.6381 C   0  0  0  0  0  0  0  0  0  0  0  0
    0.3147   -3.7481   -6.9168 C   0  0  0  0  0  0  0  0  0  0  0  0
    1.1038   -2.6272   -7.0880 C   0  0  0  0  0  0  0  0  0  0  0  0
   -0.7629   -5.2964   -5.4671 O   0  0  0  0  0  0  0  0  0  0  0  0
   -1.0321   -5.6980   -4.1223 C   0  0  0  0  0  0  0  0  0  0  0  0
   -1.9146   -6.9477   -4.1303 C   0  0  0  0  0  0  0  0  0  0  0  0
   -2.1985   -7.3713   -2.7121 C   0  0  0  0  0  0  0  0  0  0  0  0
   -3.2360   -6.9668   -1.9570 C   0  0  0  0  0  0  0  0  0  0  0  0
   -3.1214   -7.5759   -0.7602 O   0  0  0  0  0  0  0  0  0  0  0  0
   -2.0186   -8.3437   -0.7966 C   0  0  0  0  0  0  0  0  0  0  0  0
   -1.4648   -8.2231   -1.9801 N   0  0  0  0  0  0  0  0  0  0  0  0
   -1.5172   -9.1871    0.3091 C   0  0  0  0  0  0  0  0  0  0  0  0
   -0.3571   -9.9449    0.1421 C   0  0  0  0  0  0  0  0  0  0  0  0
    0.1087  -10.7254    1.1799 C   0  0  0  0  0  0  0  0  0  0  0  0
   -0.5778  -10.7669    2.3804 C   0  0  0  0  0  0  0  0  0  0  0  0
   -1.7316  -10.0225    2.5506 C   0  0  0  0  0  0  0  0  0  0  0  0
   -2.2049   -9.2334    1.5227 C   0  0  0  0  0  0  0  0  0  0  0  0
   -4.3243   -6.0107   -2.3724 C   0  0  0  0  0  0  0  0  0  0  0  0
    2.4127    1.7251   -6.5397 C   0  0  0  0  0  0  0  0  0  0  0  0
    2.4620    2.6462   -5.7593 O   0  0  0  0  0  0  0  0  0  0  0  0
   -0.1672    1.2735    2.1502 H   0  0  0  0  0  0  0  0  0  0  0  0
   -0.7034    2.7202    1.2626 H   0  0  0  0  0  0  0  0  0  0  0  0
   -1.7222    1.2608    1.2841 H   0  0  0  0  0  0  0  0  0  0  0  0
    0.0146    0.0296    0.0128 H   0  0  0  0  0  0  0  0  0  0  0  0
    1.0334    1.4890   -0.0087 H   0  0  0  0  0  0  0  0  0  0  0  0
   -2.5280    2.5866   -2.5844 H   0  0  0  0  0  0  0  0  0  0  0  0
   -3.6226    3.3315   -4.6517 H   0  0  0  0  0  0  0  0  0  0  0  0
   -2.6089    2.8432   -6.8390 H   0  0  0  0  0  0  0  0  0  0  0  0
   -0.4882    1.6136   -6.9785 H   0  0  0  0  0  0  0  0  0  0  0  0
    1.3124    0.3409   -4.1273 H   0  0  0  0  0  0  0  0  0  0  0  0
    3.0103   -0.8161   -7.1091 H   0  0  0  0  0  0  0  0  0  0  0  0
    3.1518   -0.6418   -5.3433 H   0  0  0  0  0  0  0  0  0  0  0  0
    1.6861   -1.8677   -3.8522 H   0  0  0  0  0  0  0  0  0  0  0  0
    0.2726   -3.8582   -3.5380 H   0  0  0  0  0  0  0  0  0  0  0  0
   -0.0676   -4.2766   -7.7776 H   0  0  0  0  0  0  0  0  0  0  0  0
    1.3383   -2.2794   -8.0832 H   0  0  0  0  0  0  0  0  0  0  0  0
   -0.0934   -5.9193   -3.6144 H   0  0  0  0  0  0  0  0  0  0  0  0
   -1.5474   -4.8926   -3.5989 H   0  0  0  0  0  0  0  0  0  0  0  0
   -2.8533   -6.7265   -4.6382 H   0  0  0  0  0  0  0  0  0  0  0  0
   -1.3994   -7.7531   -4.6537 H   0  0  0  0  0  0  0  0  0  0  0  0
    0.1772   -9.9169   -0.7961 H   0  0  0  0  0  0  0  0  0  0  0  0
    1.0087  -11.3089    1.0535 H   0  0  0  0  0  0  0  0  0  0  0  0
   -0.2113  -11.3827    3.1884 H   0  0  0  0  0  0  0  0  0  0  0  0
   -2.2627  -10.0590    3.4903 H   0  0  0  0  0  0  0  0  0  0  0  0
   -3.1055   -8.6526    1.6569 H   0  0  0  0  0  0  0  0  0  0  0  0
   -5.1469   -6.5686   -2.8198 H   0  0  0  0  0  0  0  0  0  0  0  0
   -4.6856   -5.4694   -1.4980 H   0  0  0  0  0  0  0  0  0  0  0  0
   -3.9276   -5.3024   -3.0998 H   0  0  0  0  0  0  0  0  0  0  0  0
    3.1116    1.7771   -7.6845 O   0  5  0  0  0  0  0  0  0  0  0  0
  1  2  1  0  0  0  0
  1 39  1  0  0  0  0
  1 40  1  0  0  0  0
  1 41  1  0  0  0  0
  2  3  1  0  0  0  0
  2 42  1  0  0  0  0
  2 43  1  0  0  0  0
  3  4  1  0  0  0  0
  4  5  2  0  0  0  0
  4  6  1  0  0  0  0
  6 11  2  0  0  0  0
  6  7  1  0  0  0  0
  7  8  2  0  0  0  0
  7 44  1  0  0  0  0
  8  9  1  0  0  0  0
  8 45  1  0  0  0  0
  9 10  2  0  0  0  0
  9 46  1  0  0  0  0
 10 11  1  0  0  0  0
 10 47  1  0  0  0  0
 11 12  1  0  0  0  0
 12 13  1  0  0  0  0
 12 48  1  0  0  0  0
 13 14  1  0  0  0  0
 13 15  1  0  0  0  0
 13 37  1  0  0  0  0
 15 16  1  0  0  0  0
 15 49  1  0  0  0  0
 15 50  1  0  0  0  0
 16 21  2  0  0  0  0
 16 17  1  0  0  0  0
 17 18  2  0  0  0  0
 17 51  1  0  0  0  0
 18 19  1  0  0  0  0
 18 52  1  0  0  0  0
 19 20  2  0  0  0  0
 19 22  1  0  0  0  0
 20 21  1  0  0  0  0
 20 53  1  0  0  0  0
 21 54  1  0  0  0  0
 22 23  1  0  0  0  0
 23 24  1  0  0  0  0
 23 55  1  0  0  0  0
 23 56  1  0  0  0  0
 24 25  1  0  0  0  0
 24 57  1  0  0  0  0
 24 58  1  0  0  0  0
 25 29  1  0  0  0  0
 25 26  2  0  0  0  0
 26 27  1  0  0  0  0
 26 36  1  0  0  0  0
 27 28  1  0  0  0  0
 28 29  2  0  0  0  0
 28 30  1  0  0  0  0
 30 35  2  0  0  0  0
 30 31  1  0  0  0  0
 31 32  2  0  0  0  0
 31 59  1  0  0  0  0
 32 33  1  0  0  0  0
 32 60  1  0  0  0  0
 33 34  2  0  0  0  0
 33 61  1  0  0  0  0
 34 35  1  0  0  0  0
 34 62  1  0  0  0  0
 35 63  1  0  0  0  0
 36 64  1  0  0  0  0
 36 65  1  0  0  0  0
 36 66  1  0  0  0  0
 37 38  2  0  0  0  0
 37 67  1  0  0  0  0
M  CHG  1  67  -1
M  END
$$$$
ZINC04137612
  -OEChem-08230709403D

 71 75  0     1  0  0  0  0  0999 V2000
    7.8782    6.5932   -7.4131 C   0  0  0  0  0  0  0  0  0  0  0  0
    6.9041    6.8730   -6.3552 N   0  0  0  0  0  0  0  0  0  0  0  0
    7.0401    6.2304   -5.0457 C   0  0  0  0  0  0  0  0  0  0  0  0
    6.2754    4.9052   -5.0460 C   0  0  0  0  0  0  0  0  0  0  0  0
    6.8835    4.0046   -5.9740 O   0  0  0  0  0  0  0  0  0  0  0  0
    6.3220    2.7732   -6.0970 C   0  0  0  0  0  0  0  0  0  0  0  0
    6.8612    1.8486   -6.9797 C   0  0  0  0  0  0  0  0  0  0  0  0
    6.2883    0.5977   -7.1032 C   0  0  0  0  0  0  0  0  0  0  0  0
    5.1786    0.2666   -6.3477 C   0  0  0  0  0  0  0  0  0  0  0  0
    4.6360    1.1882   -5.4714 C   0  0  0  0  0  0  0  0  0  0  0  0
    5.2083    2.4386   -5.3404 C   0  0  0  0  0  0  0  0  0  0  0  0
    4.5560   -1.0990   -6.4840 C   0  0  0  0  0  0  0  0  0  0  0  0
    5.2056   -2.0579   -5.4843 C   0  0  2  0  0  0  0  0  0  0  0  0
    6.2860   -2.0564   -5.6289 H   0  0  0  0  0  0  0  0  0  0  0  0
    4.6713   -3.4498   -5.7034 C   0  0  0  0  0  0  0  0  0  0  0  0
    4.0906   -4.0215   -4.8113 O   0  0  0  0  0  0  0  0  0  0  0  0
    4.8950   -1.6248   -4.1197 N   0  0  0  0  0  0  0  0  0  0  0  0
    5.7381   -1.9696   -3.0738 C   0  0  0  0  0  0  0  0  0  0  0  0
    6.9357   -2.6266   -3.3290 C   0  0  0  0  0  0  0  0  0  0  0  0
    7.7701   -2.9731   -2.2867 C   0  0  0  0  0  0  0  0  0  0  0  0
    7.4267   -2.6662   -0.9784 C   0  0  0  0  0  0  0  0  0  0  0  0
    6.2478   -2.0118   -0.7032 C   0  0  0  0  0  0  0  0  0  0  0  0
    5.3883   -1.6521   -1.7489 C   0  0  0  0  0  0  0  0  0  0  0  0
    4.1299   -0.9550   -1.4641 C   0  0  0  0  0  0  0  0  0  0  0  0
    3.4385   -0.5540   -2.3768 O   0  0  0  0  0  0  0  0  0  0  0  0
    3.6955   -0.7367   -0.0377 C   0  0  0  0  0  0  0  0  0  0  0  0
    2.3794   -0.0029   -0.0200 C   0  0  0  0  0  0  0  0  0  0  0  0
    1.1926   -0.7117   -0.0295 C   0  0  0  0  0  0  0  0  0  0  0  0
   -0.0146   -0.0386   -0.0133 C   0  0  0  0  0  0  0  0  0  0  0  0
   -0.0352    1.3433    0.0124 C   0  0  0  0  0  0  0  0  0  0  0  0
    1.1516    2.0522    0.0224 C   0  0  0  0  0  0  0  0  0  0  0  0
    2.3588    1.3790    0.0061 C   0  0  0  0  0  0  0  0  0  0  0  0
    5.8612    7.7397   -6.5916 C   0  0  0  0  0  0  0  0  0  0  0  0
    4.9357    8.0542   -5.7216 N   0  0  0  0  0  0  0  0  0  0  0  0
    4.0746    8.9360   -6.2999 C   0  0  0  0  0  0  0  0  0  0  0  0
    2.9285    9.5962   -5.8552 C   0  0  0  0  0  0  0  0  0  0  0  0
    2.2550   10.4447   -6.7064 C   0  0  0  0  0  0  0  0  0  0  0  0
    2.7095   10.6458   -8.0007 C   0  0  0  0  0  0  0  0  0  0  0  0
    3.8418    9.9990   -8.4531 C   0  0  0  0  0  0  0  0  0  0  0  0
    4.5310    9.1423   -7.6103 C   0  0  0  0  0  0  0  0  0  0  0  0
    5.6414    8.3824   -7.7520 O   0  0  0  0  0  0  0  0  0  0  0  0
    7.5412    5.7390   -8.0005 H   0  0  0  0  0  0  0  0  0  0  0  0
    7.9720    7.4651   -8.0605 H   0  0  0  0  0  0  0  0  0  0  0  0
    8.8459    6.3672   -6.9654 H   0  0  0  0  0  0  0  0  0  0  0  0
    6.6321    6.8851   -4.2756 H   0  0  0  0  0  0  0  0  0  0  0  0
    8.0939    6.0417   -4.8412 H   0  0  0  0  0  0  0  0  0  0  0  0
    5.2402    5.0831   -5.3375 H   0  0  0  0  0  0  0  0  0  0  0  0
    6.3019    4.4701   -4.0470 H   0  0  0  0  0  0  0  0  0  0  0  0
    7.7283    2.1065   -7.5696 H   0  0  0  0  0  0  0  0  0  0  0  0
    6.7077   -0.1224   -7.7902 H   0  0  0  0  0  0  0  0  0  0  0  0
    3.7663    0.9288   -4.8858 H   0  0  0  0  0  0  0  0  0  0  0  0
    4.7869    3.1565   -4.6523 H   0  0  0  0  0  0  0  0  0  0  0  0
    4.7118   -1.4699   -7.4971 H   0  0  0  0  0  0  0  0  0  0  0  0
    3.4869   -1.0327   -6.2818 H   0  0  0  0  0  0  0  0  0  0  0  0
    4.0996   -1.0968   -3.9476 H   0  0  0  0  0  0  0  0  0  0  0  0
    7.2117   -2.8698   -4.3445 H   0  0  0  0  0  0  0  0  0  0  0  0
    8.6979   -3.4869   -2.4910 H   0  0  0  0  0  0  0  0  0  0  0  0
    8.0883   -2.9428   -0.1708 H   0  0  0  0  0  0  0  0  0  0  0  0
    5.9856   -1.7762    0.3177 H   0  0  0  0  0  0  0  0  0  0  0  0
    4.3857   -0.1947    0.4417 H   0  0  0  0  0  0  0  0  0  0  0  0
    3.5809   -1.7003    0.4588 H   0  0  0  0  0  0  0  0  0  0  0  0
    1.2087   -1.7914   -0.0499 H   0  0  0  0  0  0  0  0  0  0  0  0
   -0.9418   -0.5924   -0.0211 H   0  0  0  0  0  0  0  0  0  0  0  0
   -0.9784    1.8693    0.0201 H   0  0  0  0  0  0  0  0  0  0  0  0
    1.1355    3.1319    0.0421 H   0  0  0  0  0  0  0  0  0  0  0  0
    3.2860    1.9328    0.0139 H   0  0  0  0  0  0  0  0  0  0  0  0
    2.5710    9.4429   -4.8477 H   0  0  0  0  0  0  0  0  0  0  0  0
    1.3680   10.9565   -6.3633 H   0  0  0  0  0  0  0  0  0  0  0  0
    2.1736   11.3129   -8.6596 H   0  0  0  0  0  0  0  0  0  0  0  0
    4.1897   10.1602   -9.4627 H   0  0  0  0  0  0  0  0  0  0  0  0
    4.8405   -4.0546   -6.8897 O   0  5  0  0  0  0  0  0  0  0  0  0
  1  2  1  0  0  0  0
  1 42  1  0  0  0  0
  1 43  1  0  0  0  0
  1 44  1  0  0  0  0
  2  3  1  0  0  0  0
  2 33  1  0  0  0  0
  3  4  1  0  0  0  0
  3 45  1  0  0  0  0
  3 46  1  0  0  0  0
  4  5  1  0  0  0  0
  4 47  1  0  0  0  0
  4 48  1  0  0  0  0
  5  6  1  0  0  0  0
  6 11  2  0  0  0  0
  6  7  1  0  0  0  0
  7  8  2  0  0  0  0
  7 49  1  0  0  0  0
  8  9  1  0  0  0  0
  8 50  1  0  0  0  0
  9 10  2  0  0  0  0
  9 12  1  0  0  0  0
 10 11  1  0  0  0  0
 10 51  1  0  0  0  0
 11 52  1  0  0  0  0
 12 13  1  0  0  0  0
 12 53  1  0  0  0  0
 12 54  1  0  0  0  0
 13 14  1  0  0  0  0
 13 15  1  0  0  0  0
 13 17  1  0  0  0  0
 15 16  2  0  0  0  0
 15 71  1  0  0  0  0
 17 18  1  0  0  0  0
 17 55  1  0  0  0  0
 18 23  2  0  0  0  0
 18 19  1  0  0  0  0
 19 20  2  0  0  0  0
 19 56  1  0  0  0  0
 20 21  1  0  0  0  0
 20 57  1  0  0  0  0
 21 22  2  0  0  0  0
 21 58  1  0  0  0  0
 22 23  1  0  0  0  0
 22 59  1  0  0  0  0
 23 24  1  0  0  0  0
 24 25  2  0  0  0  0
 24 26  1  0  0  0  0
 26 27  1  0  0  0  0
 26 60  1  0  0  0  0
 26 61  1  0  0  0  0
 27 32  2  0  0  0  0
 27 28  1  0  0  0  0
 28 29  2  0  0  0  0
 28 62  1  0  0  0  0
 29 30  1  0  0  0  0
 29 63  1  0  0  0  0
 30 31  2  0  0  0  0
 30 64  1  0  0  0  0
 31 32  1  0  0  0  0
 31 65  1  0  0  0  0
 32 66  1  0  0  0  0
 33 41  1  0  0  0  0
 33 34  2  0  0  0  0
 34 35  1  0  0  0  0
 35 40  2  0  0  0  0
 35 36  1  0  0  0  0
 36 37  2  0  0  0  0
 36 67  1  0  0  0  0
 37 38  1  0  0  0  0
 37 68  1  0  0  0  0
 38 39  2  0  0  0  0
 38 69  1  0  0  0  0
 39 40  1  0  0  0  0
 39 70  1  0  0  0  0
 40 41  1  0  0  0  0
M  CHG  1  71  -1
M  END
$$$$
ZINC04137613
  -OEChem-08230709403D

 74 78  0     1  0  0  0  0  0999 V2000
   -1.1470   -0.3972   -0.0074 C   0  0  0  0  0  0  0  0  0  0  0  0
    0.0514    0.5142    0.0577 C   0  0  0  0  0  0  0  0  0  0  0  0
    0.0289    1.8558    0.1575 C   0  0  0  0  0  0  0  0  0  0  0  0
    1.2989    2.2872    0.1862 N   0  0  0  0  0  0  0  0  0  0  0  0
    2.0967    1.2484    0.1068 C   0  0  0  0  0  0  0  0  0  0  0  0
    1.3449    0.1370    0.0261 O   0  0  0  0  0  0  0  0  0  0  0  0
    3.5743    1.2929    0.1066 C   0  0  0  0  0  0  0  0  0  0  0  0
    4.2386    2.5175    0.1906 C   0  0  0  0  0  0  0  0  0  0  0  0
    5.6178    2.5517    0.1958 C   0  0  0  0  0  0  0  0  0  0  0  0
    6.3423    1.3763    0.1063 C   0  0  0  0  0  0  0  0  0  0  0  0
    5.6899    0.1595    0.0170 C   0  0  0  0  0  0  0  0  0  0  0  0
    4.3111    0.1110    0.0167 C   0  0  0  0  0  0  0  0  0  0  0  0
   -1.2038    2.7205    0.2196 C   0  0  0  0  0  0  0  0  0  0  0  0
   -1.6237    2.9061    1.6791 C   0  0  0  0  0  0  0  0  0  0  0  0
   -2.7925    3.7260    1.7379 O   0  0  0  0  0  0  0  0  0  0  0  0
   -3.2995    3.9901    2.9708 C   0  0  0  0  0  0  0  0  0  0  0  0
   -2.6879    3.4661    4.1004 C   0  0  0  0  0  0  0  0  0  0  0  0
   -3.2021    3.7404    5.3529 C   0  0  0  0  0  0  0  0  0  0  0  0
   -4.3315    4.5278    5.4806 C   0  0  0  0  0  0  0  0  0  0  0  0
   -4.9461    5.0466    4.3560 C   0  0  0  0  0  0  0  0  0  0  0  0
   -4.4328    4.7796    3.1016 C   0  0  0  0  0  0  0  0  0  0  0  0
   -4.8936    4.8207    6.8478 C   0  0  0  0  0  0  0  0  0  0  0  0
   -5.9137    3.7433    7.2214 C   0  0  2  0  0  0  0  0  0  0  0  0
   -6.6745    3.6780    6.4435 H   0  0  0  0  0  0  0  0  0  0  0  0
   -6.5651    4.1012    8.5323 C   0  0  0  0  0  0  0  0  0  0  0  0
   -6.4718    3.3540    9.4772 O   0  0  0  0  0  0  0  0  0  0  0  0
   -5.2347    2.4516    7.3501 N   0  0  0  0  0  0  0  0  0  0  0  0
   -5.9447    1.2730    7.1667 C   0  0  0  0  0  0  0  0  0  0  0  0
   -7.3203    1.3088    6.9743 C   0  0  0  0  0  0  0  0  0  0  0  0
   -8.0228    0.1364    6.7865 C   0  0  0  0  0  0  0  0  0  0  0  0
   -7.3672   -1.0853    6.7993 C   0  0  0  0  0  0  0  0  0  0  0  0
   -6.0053   -1.1425    6.9942 C   0  0  0  0  0  0  0  0  0  0  0  0
   -5.2772    0.0369    7.1803 C   0  0  0  0  0  0  0  0  0  0  0  0
   -3.8200   -0.0166    7.3898 C   0  0  0  0  0  0  0  0  0  0  0  0
   -3.0781   -0.2297    6.4502 O   0  0  0  0  0  0  0  0  0  0  0  0
   -3.2598    0.1888    8.7421 C   0  0  0  0  0  0  0  0  0  0  0  0
   -4.1111    0.3260    9.8408 C   0  0  0  0  0  0  0  0  0  0  0  0
   -3.5815    0.5121   11.1005 C   0  0  0  0  0  0  0  0  0  0  0  0
   -2.2100    0.5740   11.2758 C   0  0  0  0  0  0  0  0  0  0  0  0
   -1.3610    0.4441   10.1911 C   0  0  0  0  0  0  0  0  0  0  0  0
   -1.8771    0.2523    8.9262 C   0  0  0  0  0  0  0  0  0  0  0  0
    0.1310    0.5129   10.3918 C   0  0  0  0  0  0  0  0  0  0  0  0
    0.5664    1.8683   10.2677 O   0  0  0  0  0  0  0  0  0  0  0  0
   -1.4383   -0.5406   -1.0479 H   0  0  0  0  0  0  0  0  0  0  0  0
   -0.8951   -1.3607    0.4356 H   0  0  0  0  0  0  0  0  0  0  0  0
   -1.9743    0.0507    0.5431 H   0  0  0  0  0  0  0  0  0  0  0  0
    3.6743    3.4360    0.2560 H   0  0  0  0  0  0  0  0  0  0  0  0
    6.1331    3.4983    0.2652 H   0  0  0  0  0  0  0  0  0  0  0  0
    7.4218    1.4088    0.1066 H   0  0  0  0  0  0  0  0  0  0  0  0
    6.2612   -0.7544   -0.0522 H   0  0  0  0  0  0  0  0  0  0  0  0
    3.8031   -0.8395   -0.0527 H   0  0  0  0  0  0  0  0  0  0  0  0
   -0.9880    3.6931   -0.2228 H   0  0  0  0  0  0  0  0  0  0  0  0
   -2.0120    2.2413   -0.3329 H   0  0  0  0  0  0  0  0  0  0  0  0
   -1.8395    1.9335    2.1215 H   0  0  0  0  0  0  0  0  0  0  0  0
   -0.8155    3.3853    2.2316 H   0  0  0  0  0  0  0  0  0  0  0  0
   -1.8082    2.8475    4.0009 H   0  0  0  0  0  0  0  0  0  0  0  0
   -2.7238    3.3363    6.2329 H   0  0  0  0  0  0  0  0  0  0  0  0
   -5.8282    5.6614    4.4584 H   0  0  0  0  0  0  0  0  0  0  0  0
   -4.9135    5.1848    2.2235 H   0  0  0  0  0  0  0  0  0  0  0  0
   -4.0857    4.8254    7.5795 H   0  0  0  0  0  0  0  0  0  0  0  0
   -5.3814    5.7954    6.8389 H   0  0  0  0  0  0  0  0  0  0  0  0
   -4.2890    2.4199    7.5635 H   0  0  0  0  0  0  0  0  0  0  0  0
   -7.8395    2.2558    6.9672 H   0  0  0  0  0  0  0  0  0  0  0  0
   -9.0912    0.1702    6.6325 H   0  0  0  0  0  0  0  0  0  0  0  0
   -7.9279   -1.9972    6.6561 H   0  0  0  0  0  0  0  0  0  0  0  0
   -5.5000   -2.0970    7.0029 H   0  0  0  0  0  0  0  0  0  0  0  0
   -5.1817    0.2824    9.7047 H   0  0  0  0  0  0  0  0  0  0  0  0
   -4.2386    0.6143   11.9515 H   0  0  0  0  0  0  0  0  0  0  0  0
   -1.8007    0.7248   12.2638 H   0  0  0  0  0  0  0  0  0  0  0  0
   -1.2133    0.1517    8.0803 H   0  0  0  0  0  0  0  0  0  0  0  0
    0.3816    0.1402   11.3850 H   0  0  0  0  0  0  0  0  0  0  0  0
    0.6275   -0.0986    9.6384 H   0  0  0  0  0  0  0  0  0  0  0  0
    1.5187    1.9878   10.3854 H   0  0  0  0  0  0  0  0  0  0  0  0
   -7.2491    5.2502    8.6503 O   0  5  0  0  0  0  0  0  0  0  0  0
  1  2  1  0  0  0  0
  1 44  1  0  0  0  0
  1 45  1  0  0  0  0
  1 46  1  0  0  0  0
  2  6  1  0  0  0  0
  2  3  2  0  0  0  0
  3  4  1  0  0  0  0
  3 13  1  0  0  0  0
  4  5  2  0  0  0  0
  5  6  1  0  0  0  0
  5  7  1  0  0  0  0
  7 12  2  0  0  0  0
  7  8  1  0  0  0  0
  8  9  2  0  0  0  0
  8 47  1  0  0  0  0
  9 10  1  0  0  0  0
  9 48  1  0  0  0  0
 10 11  2  0  0  0  0
 10 49  1  0  0  0  0
 11 12  1  0  0  0  0
 11 50  1  0  0  0  0
 12 51  1  0  0  0  0
 13 14  1  0  0  0  0
 13 52  1  0  0  0  0
 13 53  1  0  0  0  0
 14 15  1  0  0  0  0
 14 54  1  0  0  0  0
 14 55  1  0  0  0  0
 15 16  1  0  0  0  0
 16 21  2  0  0  0  0
 16 17  1  0  0  0  0
 17 18  2  0  0  0  0
 17 56  1  0  0  0  0
 18 19  1  0  0  0  0
 18 57  1  0  0  0  0
 19 20  2  0  0  0  0
 19 22  1  0  0  0  0
 20 21  1  0  0  0  0
 20 58  1  0  0  0  0
 21 59  1  0  0  0  0
 22 23  1  0  0  0  0
 22 60  1  0  0  0  0
 22 61  1  0  0  0  0
 23 24  1  0  0  0  0
 23 25  1  0  0  0  0
 23 27  1  0  0  0  0
 25 26  2  0  0  0  0
 25 74  1  0  0  0  0
 27 28  1  0  0  0  0
 27 62  1  0  0  0  0
 28 33  2  0  0  0  0
 28 29  1  0  0  0  0
 29 30  2  0  0  0  0
 29 63  1  0  0  0  0
 30 31  1  0  0  0  0
 30 64  1  0  0  0  0
 31 32  2  0  0  0  0
 31 65  1  0  0  0  0
 32 33  1  0  0  0  0
 32 66  1  0  0  0  0
 33 34  1  0  0  0  0
 34 35  2  0  0  0  0
 34 36  1  0  0  0  0
 36 41  2  0  0  0  0
 36 37  1  0  0  0  0
 37 38  2  0  0  0  0
 37 67  1  0  0  0  0
 38 39  1  0  0  0  0
 38 68  1  0  0  0  0
 39 40  2  0  0  0  0
 39 69  1  0  0  0  0
 40 41  1  0  0  0  0
 40 42  1  0  0  0  0
 41 70  1  0  0  0  0
 42 43  1  0  0  0  0
 42 71  1  0  0  0  0
 42 72  1  0  0  0  0
 43 73  1  0  0  0  0
M  CHG  1  74  -1
M  END
$$$$
ZINC04137614
  -OEChem-08230709403D

 74 78  0     1  0  0  0  0  0999 V2000
    3.1787   -1.0859    9.0234 C   0  0  0  0  0  0  0  0  0  0  0  0
    2.4145   -2.2908    9.5083 C   0  0  0  0  0  0  0  0  0  0  0  0
    1.4757   -2.3053   10.4720 C   0  0  0  0  0  0  0  0  0  0  0  0
    1.0452   -3.5687   10.6075 N   0  0  0  0  0  0  0  0  0  0  0  0
    1.6869   -4.3249    9.7483 C   0  0  0  0  0  0  0  0  0  0  0  0
    2.5447   -3.5542    9.0575 O   0  0  0  0  0  0  0  0  0  0  0  0
    1.5018   -5.7811    9.5735 C   0  0  0  0  0  0  0  0  0  0  0  0
    0.5777   -6.4697   10.3609 C   0  0  0  0  0  0  0  0  0  0  0  0
    0.4057   -7.8277   10.1887 C   0  0  0  0  0  0  0  0  0  0  0  0
    1.1550   -8.5089    9.2460 C   0  0  0  0  0  0  0  0  0  0  0  0
    2.0768   -7.8333    8.4662 C   0  0  0  0  0  0  0  0  0  0  0  0
    2.2545   -6.4744    8.6243 C   0  0  0  0  0  0  0  0  0  0  0  0
    0.9974   -1.1151   11.2631 C   0  0  0  0  0  0  0  0  0  0  0  0
   -0.1842   -0.4643   10.5411 C   0  0  0  0  0  0  0  0  0  0  0  0
   -0.6377    0.6643   11.2912 O   0  0  0  0  0  0  0  0  0  0  0  0
   -1.6895    1.3597   10.7843 C   0  0  0  0  0  0  0  0  0  0  0  0
   -2.1815    2.4665   11.4608 C   0  0  0  0  0  0  0  0  0  0  0  0
   -3.2505    3.1720   10.9432 C   0  0  0  0  0  0  0  0  0  0  0  0
   -3.8301    2.7759    9.7520 C   0  0  0  0  0  0  0  0  0  0  0  0
   -3.3452    1.6698    9.0788 C   0  0  0  0  0  0  0  0  0  0  0  0
   -2.2728    0.9643    9.5893 C   0  0  0  0  0  0  0  0  0  0  0  0
   -4.9961    3.5473    9.1897 C   0  0  0  0  0  0  0  0  0  0  0  0
   -4.4786    4.6577    8.2731 C   0  0  2  0  0  0  0  0  0  0  0  0
   -3.7694    5.2792    8.8199 H   0  0  0  0  0  0  0  0  0  0  0  0
   -5.6348    5.5051    7.8082 C   0  0  0  0  0  0  0  0  0  0  0  0
   -5.8773    5.6014    6.6285 O   0  0  0  0  0  0  0  0  0  0  0  0
   -3.8121    4.0619    7.1124 N   0  0  0  0  0  0  0  0  0  0  0  0
   -2.8396    4.7774    6.4275 C   0  0  0  0  0  0  0  0  0  0  0  0
   -2.5749    6.0984    6.7674 C   0  0  0  0  0  0  0  0  0  0  0  0
   -1.6082    6.8074    6.0849 C   0  0  0  0  0  0  0  0  0  0  0  0
   -0.8940    6.2111    5.0568 C   0  0  0  0  0  0  0  0  0  0  0  0
   -1.1376    4.9015    4.7082 C   0  0  0  0  0  0  0  0  0  0  0  0
   -2.1179    4.1700    5.3864 C   0  0  0  0  0  0  0  0  0  0  0  0
   -2.3876    2.7701    5.0156 C   0  0  0  0  0  0  0  0  0  0  0  0
   -1.6154    1.8926    5.3510 O   0  0  0  0  0  0  0  0  0  0  0  0
   -3.5969    2.4319    4.2358 C   0  0  0  0  0  0  0  0  0  0  0  0
   -3.9159    1.0967    3.9800 C   0  0  0  0  0  0  0  0  0  0  0  0
   -5.0461    0.7882    3.2520 C   0  0  0  0  0  0  0  0  0  0  0  0
   -5.8631    1.7984    2.7755 C   0  0  0  0  0  0  0  0  0  0  0  0
   -5.5499    3.1238    3.0205 C   0  0  0  0  0  0  0  0  0  0  0  0
   -4.4258    3.4463    3.7519 C   0  0  0  0  0  0  0  0  0  0  0  0
   -7.0963    1.4536    1.9809 C   0  0  0  0  0  0  0  0  0  0  0  0
   -8.2064    1.2987    2.8674 O   0  0  0  0  0  0  0  0  0  0  0  0
    4.0894   -0.9724    9.6115 H   0  0  0  0  0  0  0  0  0  0  0  0
    3.4386   -1.2189    7.9732 H   0  0  0  0  0  0  0  0  0  0  0  0
    2.5609   -0.1948    9.1348 H   0  0  0  0  0  0  0  0  0  0  0  0
   -0.0046   -5.9398   11.1002 H   0  0  0  0  0  0  0  0  0  0  0  0
   -0.3122   -8.3609   10.7942 H   0  0  0  0  0  0  0  0  0  0  0  0
    1.0195   -9.5727    9.1180 H   0  0  0  0  0  0  0  0  0  0  0  0
    2.6583   -8.3709    7.7319 H   0  0  0  0  0  0  0  0  0  0  0  0
    2.9741   -5.9481    8.0148 H   0  0  0  0  0  0  0  0  0  0  0  0
    1.8079   -0.3924   11.3580 H   0  0  0  0  0  0  0  0  0  0  0  0
    0.6828   -1.4405   12.2546 H   0  0  0  0  0  0  0  0  0  0  0  0
   -0.9947   -1.1870   10.4462 H   0  0  0  0  0  0  0  0  0  0  0  0
    0.1304   -0.1389    9.5495 H   0  0  0  0  0  0  0  0  0  0  0  0
   -1.7288    2.7766   12.3910 H   0  0  0  0  0  0  0  0  0  0  0  0
   -3.6336    4.0340   11.4692 H   0  0  0  0  0  0  0  0  0  0  0  0
   -3.8027    1.3595    8.1510 H   0  0  0  0  0  0  0  0  0  0  0  0
   -1.8916    0.1030    9.0608 H   0  0  0  0  0  0  0  0  0  0  0  0
   -5.5683    3.9875   10.0063 H   0  0  0  0  0  0  0  0  0  0  0  0
   -5.6360    2.8741    8.6193 H   0  0  0  0  0  0  0  0  0  0  0  0
   -4.0505    3.1674    6.8226 H   0  0  0  0  0  0  0  0  0  0  0  0
   -3.1268    6.5707    7.5667 H   0  0  0  0  0  0  0  0  0  0  0  0
   -1.4061    7.8338    6.3533 H   0  0  0  0  0  0  0  0  0  0  0  0
   -0.1394    6.7757    4.5292 H   0  0  0  0  0  0  0  0  0  0  0  0
   -0.5750    4.4409    3.9096 H   0  0  0  0  0  0  0  0  0  0  0  0
   -3.2789    0.3074    4.3510 H   0  0  0  0  0  0  0  0  0  0  0  0
   -5.2942   -0.2440    3.0538 H   0  0  0  0  0  0  0  0  0  0  0  0
   -6.1895    3.9074    2.6420 H   0  0  0  0  0  0  0  0  0  0  0  0
   -4.1851    4.4810    3.9465 H   0  0  0  0  0  0  0  0  0  0  0  0
   -6.9310    0.5221    1.4395 H   0  0  0  0  0  0  0  0  0  0  0  0
   -7.3069    2.2538    1.2714 H   0  0  0  0  0  0  0  0  0  0  0  0
   -9.0360    1.0756    2.4236 H   0  0  0  0  0  0  0  0  0  0  0  0
   -6.3953    6.1528    8.7048 O   0  5  0  0  0  0  0  0  0  0  0  0
  1  2  1  0  0  0  0
  1 44  1  0  0  0  0
  1 45  1  0  0  0  0
  1 46  1  0  0  0  0
  2  6  1  0  0  0  0
  2  3  2  0  0  0  0
  3  4  1  0  0  0  0
  3 13  1  0  0  0  0
  4  5  2  0  0  0  0
  5  6  1  0  0  0  0
  5  7  1  0  0  0  0
  7 12  2  0  0  0  0
  7  8  1  0  0  0  0
  8  9  2  0  0  0  0
  8 47  1  0  0  0  0
  9 10  1  0  0  0  0
  9 48  1  0  0  0  0
 10 11  2  0  0  0  0
 10 49  1  0  0  0  0
 11 12  1  0  0  0  0
 11 50  1  0  0  0  0
 12 51  1  0  0  0  0
 13 14  1  0  0  0  0
 13 52  1  0  0  0  0
 13 53  1  0  0  0  0
 14 15  1  0  0  0  0
 14 54  1  0  0  0  0
 14 55  1  0  0  0  0
 15 16  1  0  0  0  0
 16 21  2  0  0  0  0
 16 17  1  0  0  0  0
 17 18  2  0  0  0  0
 17 56  1  0  0  0  0
 18 19  1  0  0  0  0
 18 57  1  0  0  0  0
 19 20  2  0  0  0  0
 19 22  1  0  0  0  0
 20 21  1  0  0  0  0
 20 58  1  0  0  0  0
 21 59  1  0  0  0  0
 22 23  1  0  0  0  0
 22 60  1  0  0  0  0
 22 61  1  0  0  0  0
 23 24  1  0  0  0  0
 23 25  1  0  0  0  0
 23 27  1  0  0  0  0
 25 26  2  0  0  0  0
 25 74  1  0  0  0  0
 27 28  1  0  0  0  0
 27 62  1  0  0  0  0
 28 33  2  0  0  0  0
 28 29  1  0  0  0  0
 29 30  2  0  0  0  0
 29 63  1  0  0  0  0
 30 31  1  0  0  0  0
 30 64  1  0  0  0  0
 31 32  2  0  0  0  0
 31 65  1  0  0  0  0
 32 33  1  0  0  0  0
 32 66  1  0  0  0  0
 33 34  1  0  0  0  0
 34 35  2  0  0  0  0
 34 36  1  0  0  0  0
 36 41  2  0  0  0  0
 36 37  1  0  0  0  0
 37 38  2  0  0  0  0
 37 67  1  0  0  0  0
 38 39  1  0  0  0  0
 38 68  1  0  0  0  0
 39 40  2  0  0  0  0
 39 42  1  0  0  0  0
 40 41  1  0  0  0  0
 40 69  1  0  0  0  0
 41 70  1  0  0  0  0
 42 43  1  0  0  0  0
 42 71  1  0  0  0  0
 42 72  1  0  0  0  0
 43 73  1  0  0  0  0
M  CHG  1  74  -1
M  END
$$$$
ZINC04137615
  -OEChem-08230709403D

 71 75  0     1  0  0  0  0  0999 V2000
   -0.0356    8.2008    9.1332 C   0  0  0  0  0  0  0  0  0  0  0  0
   -0.7369    6.9545    8.8150 N   0  0  0  0  0  0  0  0  0  0  0  0
   -0.0285    5.8693    8.1318 C   0  0  0  0  0  0  0  0  0  0  0  0
   -0.1748    6.0383    6.6182 C   0  0  0  0  0  0  0  0  0  0  0  0
    0.4841    7.2377    6.2069 O   0  0  0  0  0  0  0  0  0  0  0  0
    0.4483    7.5381    4.8820 C   0  0  0  0  0  0  0  0  0  0  0  0
    1.0675    8.6877    4.4132 C   0  0  0  0  0  0  0  0  0  0  0  0
    1.0294    8.9910    3.0660 C   0  0  0  0  0  0  0  0  0  0  0  0
    0.3752    8.1498    2.1850 C   0  0  0  0  0  0  0  0  0  0  0  0
   -0.2476    7.0064    2.6505 C   0  0  0  0  0  0  0  0  0  0  0  0
   -0.2078    6.6959    3.9961 C   0  0  0  0  0  0  0  0  0  0  0  0
    0.3355    8.4829    0.7158 C   0  0  0  0  0  0  0  0  0  0  0  0
    1.5439    7.8556    0.0179 C   0  0  2  0  0  0  0  0  0  0  0  0
    2.4588    8.1812    0.5128 H   0  0  0  0  0  0  0  0  0  0  0  0
    1.5717    8.2893   -1.4251 C   0  0  0  0  0  0  0  0  0  0  0  0
    1.5141    7.4636   -2.3053 O   0  0  0  0  0  0  0  0  0  0  0  0
    1.4443    6.3956    0.0871 N   0  0  0  0  0  0  0  0  0  0  0  0
    2.5914    5.6174    0.0137 C   0  0  0  0  0  0  0  0  0  0  0  0
    3.8228    6.2101   -0.2377 C   0  0  0  0  0  0  0  0  0  0  0  0
    4.9606    5.4339   -0.3154 C   0  0  0  0  0  0  0  0  0  0  0  0
    4.8876    4.0604   -0.1388 C   0  0  0  0  0  0  0  0  0  0  0  0
    3.6778    3.4547    0.1165 C   0  0  0  0  0  0  0  0  0  0  0  0
    2.5146    4.2269    0.1985 C   0  0  0  0  0  0  0  0  0  0  0  0
    1.2167    3.5857    0.4708 C   0  0  0  0  0  0  0  0  0  0  0  0
    0.9484    3.2095    1.5956 O   0  0  0  0  0  0  0  0  0  0  0  0
    0.2403    3.3995   -0.6233 C   0  0  0  0  0  0  0  0  0  0  0  0
   -1.0334    2.8972   -0.3488 C   0  0  0  0  0  0  0  0  0  0  0  0
   -1.9397    2.7264   -1.3744 C   0  0  0  0  0  0  0  0  0  0  0  0
   -1.5894    3.0521   -2.6729 C   0  0  0  0  0  0  0  0  0  0  0  0
   -0.3291    3.5508   -2.9520 C   0  0  0  0  0  0  0  0  0  0  0  0
    0.5872    3.7261   -1.9360 C   0  0  0  0  0  0  0  0  0  0  0  0
   -2.5851    2.8632   -3.7882 C   0  0  0  0  0  0  0  0  0  0  0  0
   -3.3369    4.0326   -3.9451 F   0  0  0  0  0  0  0  0  0  0  0  0
   -1.9049    2.5830   -4.9782 F   0  0  0  0  0  0  0  0  0  0  0  0
   -3.4379    1.7988   -3.4768 F   0  0  0  0  0  0  0  0  0  0  0  0
   -2.0613    6.8030    9.1581 C   0  0  0  0  0  0  0  0  0  0  0  0
   -2.7812    5.7373    8.9167 N   0  0  0  0  0  0  0  0  0  0  0  0
   -4.0383    5.9417    9.3979 C   0  0  0  0  0  0  0  0  0  0  0  0
   -5.1985    5.1666    9.4227 C   0  0  0  0  0  0  0  0  0  0  0  0
   -6.3462    5.6726    9.9926 C   0  0  0  0  0  0  0  0  0  0  0  0
   -6.3545    6.9459   10.5409 C   0  0  0  0  0  0  0  0  0  0  0  0
   -5.2138    7.7230   10.5229 C   0  0  0  0  0  0  0  0  0  0  0  0
   -4.0511    7.2296    9.9538 C   0  0  0  0  0  0  0  0  0  0  0  0
   -2.8057    7.7308    9.7850 O   0  0  0  0  0  0  0  0  0  0  0  0
   -0.1417    8.8994    8.3032 H   0  0  0  0  0  0  0  0  0  0  0  0
   -0.4646    8.6392   10.0342 H   0  0  0  0  0  0  0  0  0  0  0  0
    1.0211    7.9911    9.2988 H   0  0  0  0  0  0  0  0  0  0  0  0
   -0.4531    4.9118    8.4332 H   0  0  0  0  0  0  0  0  0  0  0  0
    1.0275    5.8991    8.4003 H   0  0  0  0  0  0  0  0  0  0  0  0
   -1.2321    6.0976    6.3598 H   0  0  0  0  0  0  0  0  0  0  0  0
    0.2756    5.1844    6.1121 H   0  0  0  0  0  0  0  0  0  0  0  0
    1.5793    9.3447    5.1008 H   0  0  0  0  0  0  0  0  0  0  0  0
    1.5113    9.8858    2.7005 H   0  0  0  0  0  0  0  0  0  0  0  0
   -0.7620    6.3534    1.9611 H   0  0  0  0  0  0  0  0  0  0  0  0
   -0.6910    5.8007    4.3586 H   0  0  0  0  0  0  0  0  0  0  0  0
    0.3632    9.5650    0.5877 H   0  0  0  0  0  0  0  0  0  0  0  0
   -0.5818    8.0886    0.2785 H   0  0  0  0  0  0  0  0  0  0  0  0
    0.5768    5.9727    0.1843 H   0  0  0  0  0  0  0  0  0  0  0  0
    3.8886    7.2791   -0.3766 H   0  0  0  0  0  0  0  0  0  0  0  0
    5.9146    5.8991   -0.5148 H   0  0  0  0  0  0  0  0  0  0  0  0
    5.7848    3.4625   -0.2021 H   0  0  0  0  0  0  0  0  0  0  0  0
    3.6271    2.3846    0.2535 H   0  0  0  0  0  0  0  0  0  0  0  0
   -1.3097    2.6471    0.6649 H   0  0  0  0  0  0  0  0  0  0  0  0
   -2.9251    2.3379   -1.1635 H   0  0  0  0  0  0  0  0  0  0  0  0
   -0.0621    3.8030   -3.9676 H   0  0  0  0  0  0  0  0  0  0  0  0
    1.5706    4.1151   -2.1551 H   0  0  0  0  0  0  0  0  0  0  0  0
   -5.1965    4.1740    8.9971 H   0  0  0  0  0  0  0  0  0  0  0  0
   -7.2446    5.0736   10.0127 H   0  0  0  0  0  0  0  0  0  0  0  0
   -7.2599    7.3327   10.9847 H   0  0  0  0  0  0  0  0  0  0  0  0
   -5.2278    8.7141   10.9516 H   0  0  0  0  0  0  0  0  0  0  0  0
    1.6603    9.5929   -1.7325 O   0  5  0  0  0  0  0  0  0  0  0  0
  1  2  1  0  0  0  0
  1 45  1  0  0  0  0
  1 46  1  0  0  0  0
  1 47  1  0  0  0  0
  2  3  1  0  0  0  0
  2 36  1  0  0  0  0
  3  4  1  0  0  0  0
  3 48  1  0  0  0  0
  3 49  1  0  0  0  0
  4  5  1  0  0  0  0
  4 50  1  0  0  0  0
  4 51  1  0  0  0  0
  5  6  1  0  0  0  0
  6 11  2  0  0  0  0
  6  7  1  0  0  0  0
  7  8  2  0  0  0  0
  7 52  1  0  0  0  0
  8  9  1  0  0  0  0
  8 53  1  0  0  0  0
  9 10  2  0  0  0  0
  9 12  1  0  0  0  0
 10 11  1  0  0  0  0
 10 54  1  0  0  0  0
 11 55  1  0  0  0  0
 12 13  1  0  0  0  0
 12 56  1  0  0  0  0
 12 57  1  0  0  0  0
 13 14  1  0  0  0  0
 13 15  1  0  0  0  0
 13 17  1  0  0  0  0
 15 16  2  0  0  0  0
 15 71  1  0  0  0  0
 17 18  1  0  0  0  0
 17 58  1  0  0  0  0
 18 23  2  0  0  0  0
 18 19  1  0  0  0  0
 19 20  2  0  0  0  0
 19 59  1  0  0  0  0
 20 21  1  0  0  0  0
 20 60  1  0  0  0  0
 21 22  2  0  0  0  0
 21 61  1  0  0  0  0
 22 23  1  0  0  0  0
 22 62  1  0  0  0  0
 23 24  1  0  0  0  0
 24 25  2  0  0  0  0
 24 26  1  0  0  0  0
 26 31  2  0  0  0  0
 26 27  1  0  0  0  0
 27 28  2  0  0  0  0
 27 63  1  0  0  0  0
 28 29  1  0  0  0  0
 28 64  1  0  0  0  0
 29 30  2  0  0  0  0
 29 32  1  0  0  0  0
 30 31  1  0  0  0  0
 30 65  1  0  0  0  0
 31 66  1  0  0  0  0
 32 33  1  0  0  0  0
 32 34  1  0  0  0  0
 32 35  1  0  0  0  0
 36 44  1  0  0  0  0
 36 37  2  0  0  0  0
 37 38  1  0  0  0  0
 38 43  2  0  0  0  0
 38 39  1  0  0  0  0
 39 40  2  0  0  0  0
 39 67  1  0  0  0  0
 40 41  1  0  0  0  0
 40 68  1  0  0  0  0
 41 42  2  0  0  0  0
 41 69  1  0  0  0  0
 42 43  1  0  0  0  0
 42 70  1  0  0  0  0
 43 44  1  0  0  0  0
M  CHG  1  71  -1
M  END
$$$$
ZINC04137616
  -OEChem-08230709403D

 72 76  0     1  0  0  0  0  0999 V2000
   -0.0546    8.1950    9.1312 C   0  0  0  0  0  0  0  0  0  0  0  0
   -0.7530    6.9472    8.8125 N   0  0  0  0  0  0  0  0  0  0  0  0
   -0.0418    5.8635    8.1298 C   0  0  0  0  0  0  0  0  0  0  0  0
   -0.1873    6.0322    6.6161 C   0  0  0  0  0  0  0  0  0  0  0  0
    0.4695    7.2331    6.2053 O   0  0  0  0  0  0  0  0  0  0  0  0
    0.4341    7.5334    4.8804 C   0  0  0  0  0  0  0  0  0  0  0  0
    1.0513    8.6842    4.4121 C   0  0  0  0  0  0  0  0  0  0  0  0
    1.0136    8.9875    3.0649 C   0  0  0  0  0  0  0  0  0  0  0  0
    0.3619    8.1450    2.1834 C   0  0  0  0  0  0  0  0  0  0  0  0
   -0.2589    7.0003    2.6484 C   0  0  0  0  0  0  0  0  0  0  0  0
   -0.2196    6.6899    3.9939 C   0  0  0  0  0  0  0  0  0  0  0  0
    0.3227    8.4780    0.7142 C   0  0  0  0  0  0  0  0  0  0  0  0
    1.5330    7.8532    0.0172 C   0  0  2  0  0  0  0  0  0  0  0  0
    2.4468    8.1808    0.5129 H   0  0  0  0  0  0  0  0  0  0  0  0
    1.5610    8.2870   -1.4257 C   0  0  0  0  0  0  0  0  0  0  0  0
    1.5059    7.4613   -2.3060 O   0  0  0  0  0  0  0  0  0  0  0  0
    1.4364    6.3931    0.0863 N   0  0  0  0  0  0  0  0  0  0  0  0
    2.5854    5.6171    0.0138 C   0  0  0  0  0  0  0  0  0  0  0  0
    3.8154    6.2122   -0.2383 C   0  0  0  0  0  0  0  0  0  0  0  0
    4.9547    5.4382   -0.3164 C   0  0  0  0  0  0  0  0  0  0  0  0
    4.8846    4.0649   -0.1382 C   0  0  0  0  0  0  0  0  0  0  0  0
    3.6759    3.4571    0.1187 C   0  0  0  0  0  0  0  0  0  0  0  0
    2.5116    4.2270    0.2006 C   0  0  0  0  0  0  0  0  0  0  0  0
    1.2148    3.5834    0.4752 C   0  0  0  0  0  0  0  0  0  0  0  0
    0.9482    3.2084    1.6013 O   0  0  0  0  0  0  0  0  0  0  0  0
    0.2395    3.3938   -0.6158 C   0  0  0  0  0  0  0  0  0  0  0  0
   -1.0342    2.8888   -0.3376 C   0  0  0  0  0  0  0  0  0  0  0  0
   -1.9412    2.7138   -1.3584 C   0  0  0  0  0  0  0  0  0  0  0  0
   -1.5922    3.0386   -2.6644 C   0  0  0  0  0  0  0  0  0  0  0  0
   -0.3267    3.5411   -2.9454 C   0  0  0  0  0  0  0  0  0  0  0  0
    0.5866    3.7187   -1.9306 C   0  0  0  0  0  0  0  0  0  0  0  0
   -2.4890    2.8642   -3.6677 O   0  0  0  0  0  0  0  0  0  0  0  0
   -2.0650    3.2181   -4.9857 C   0  0  0  0  0  0  0  0  0  0  0  0
   -2.0774    6.7930    9.1545 C   0  0  0  0  0  0  0  0  0  0  0  0
   -2.7949    5.7258    8.9125 N   0  0  0  0  0  0  0  0  0  0  0  0
   -4.0528    5.9276    9.3927 C   0  0  0  0  0  0  0  0  0  0  0  0
   -5.2114    5.1501    9.4165 C   0  0  0  0  0  0  0  0  0  0  0  0
   -6.3606    5.6536    9.9855 C   0  0  0  0  0  0  0  0  0  0  0  0
   -6.3720    6.9269   10.5338 C   0  0  0  0  0  0  0  0  0  0  0  0
   -5.2329    7.7063   10.5168 C   0  0  0  0  0  0  0  0  0  0  0  0
   -4.0687    7.2155    9.9486 C   0  0  0  0  0  0  0  0  0  0  0  0
   -2.8243    7.7192    9.7808 O   0  0  0  0  0  0  0  0  0  0  0  0
   -0.1615    8.8934    8.3012 H   0  0  0  0  0  0  0  0  0  0  0  0
   -0.4853    8.6325   10.0319 H   0  0  0  0  0  0  0  0  0  0  0  0
    1.0024    7.9875    9.2977 H   0  0  0  0  0  0  0  0  0  0  0  0
   -0.4647    4.9051    8.4309 H   0  0  0  0  0  0  0  0  0  0  0  0
    1.0139    5.8955    8.3991 H   0  0  0  0  0  0  0  0  0  0  0  0
   -1.2444    6.0893    6.3568 H   0  0  0  0  0  0  0  0  0  0  0  0
    0.2653    5.1793    6.1103 H   0  0  0  0  0  0  0  0  0  0  0  0
    1.5612    9.3423    5.1002 H   0  0  0  0  0  0  0  0  0  0  0  0
    1.4939    9.8833    2.6999 H   0  0  0  0  0  0  0  0  0  0  0  0
   -0.7714    6.3463    1.9585 H   0  0  0  0  0  0  0  0  0  0  0  0
   -0.7011    5.7936    4.3561 H   0  0  0  0  0  0  0  0  0  0  0  0
    0.3483    9.5601    0.5861 H   0  0  0  0  0  0  0  0  0  0  0  0
   -0.5934    8.0818    0.2761 H   0  0  0  0  0  0  0  0  0  0  0  0
    0.5696    5.9684    0.1828 H   0  0  0  0  0  0  0  0  0  0  0  0
    3.8789    7.2812   -0.3780 H   0  0  0  0  0  0  0  0  0  0  0  0
    5.9076    5.9050   -0.5174 H   0  0  0  0  0  0  0  0  0  0  0  0
    5.7828    3.4686   -0.2015 H   0  0  0  0  0  0  0  0  0  0  0  0
    3.6274    2.3871    0.2570 H   0  0  0  0  0  0  0  0  0  0  0  0
   -1.3076    2.6404    0.6773 H   0  0  0  0  0  0  0  0  0  0  0  0
   -2.9254    2.3241   -1.1443 H   0  0  0  0  0  0  0  0  0  0  0  0
   -0.0595    3.7921   -3.9613 H   0  0  0  0  0  0  0  0  0  0  0  0
    1.5695    4.1087   -2.1498 H   0  0  0  0  0  0  0  0  0  0  0  0
   -1.7996    4.2750   -5.0104 H   0  0  0  0  0  0  0  0  0  0  0  0
   -1.1971    2.6190   -5.2612 H   0  0  0  0  0  0  0  0  0  0  0  0
   -2.8749    3.0302   -5.6906 H   0  0  0  0  0  0  0  0  0  0  0  0
   -5.2070    4.1575    8.9909 H   0  0  0  0  0  0  0  0  0  0  0  0
   -7.2578    5.0527   10.0048 H   0  0  0  0  0  0  0  0  0  0  0  0
   -7.2786    7.3118   10.9769 H   0  0  0  0  0  0  0  0  0  0  0  0
   -5.2494    8.6975   10.9455 H   0  0  0  0  0  0  0  0  0  0  0  0
    1.6471    9.5909   -1.7330 O   0  5  0  0  0  0  0  0  0  0  0  0
  1  2  1  0  0  0  0
  1 43  1  0  0  0  0
  1 44  1  0  0  0  0
  1 45  1  0  0  0  0
  2  3  1  0  0  0  0
  2 34  1  0  0  0  0
  3  4  1  0  0  0  0
  3 46  1  0  0  0  0
  3 47  1  0  0  0  0
  4  5  1  0  0  0  0
  4 48  1  0  0  0  0
  4 49  1  0  0  0  0
  5  6  1  0  0  0  0
  6 11  2  0  0  0  0
  6  7  1  0  0  0  0
  7  8  2  0  0  0  0
  7 50  1  0  0  0  0
  8  9  1  0  0  0  0
  8 51  1  0  0  0  0
  9 10  2  0  0  0  0
  9 12  1  0  0  0  0
 10 11  1  0  0  0  0
 10 52  1  0  0  0  0
 11 53  1  0  0  0  0
 12 13  1  0  0  0  0
 12 54  1  0  0  0  0
 12 55  1  0  0  0  0
 13 14  1  0  0  0  0
 13 15  1  0  0  0  0
 13 17  1  0  0  0  0
 15 16  2  0  0  0  0
 15 72  1  0  0  0  0
 17 18  1  0  0  0  0
 17 56  1  0  0  0  0
 18 23  2  0  0  0  0
 18 19  1  0  0  0  0
 19 20  2  0  0  0  0
 19 57  1  0  0  0  0
 20 21  1  0  0  0  0
 20 58  1  0  0  0  0
 21 22  2  0  0  0  0
 21 59  1  0  0  0  0
 22 23  1  0  0  0  0
 22 60  1  0  0  0  0
 23 24  1  0  0  0  0
 24 25  2  0  0  0  0
 24 26  1  0  0  0  0
 26 31  2  0  0  0  0
 26 27  1  0  0  0  0
 27 28  2  0  0  0  0
 27 61  1  0  0  0  0
 28 29  1  0  0  0  0
 28 62  1  0  0  0  0
 29 30  2  0  0  0  0
 29 32  1  0  0  0  0
 30 31  1  0  0  0  0
 30 63  1  0  0  0  0
 31 64  1  0  0  0  0
 32 33  1  0  0  0  0
 33 65  1  0  0  0  0
 33 66  1  0  0  0  0
 33 67  1  0  0  0  0
 34 42  1  0  0  0  0
 34 35  2  0  0  0  0
 35 36  1  0  0  0  0
 36 41  2  0  0  0  0
 36 37  1  0  0  0  0
 37 38  2  0  0  0  0
 37 68  1  0  0  0  0
 38 39  1  0  0  0  0
 38 69  1  0  0  0  0
 39 40  2  0  0  0  0
 39 70  1  0  0  0  0
 40 41  1  0  0  0  0
 40 71  1  0  0  0  0
 41 42  1  0  0  0  0
M  CHG  1  72  -1
M  END
$$$$
ZINC04137617
  -OEChem-08230709403D

 80 83  0     1  0  0  0  0  0999 V2000
   -4.3701    3.8926    0.0588 C   0  0  0  0  0  0  0  0  0  0  0  0
   -3.3684    2.7694   -0.0195 C   0  0  0  0  0  0  0  0  0  0  0  0
   -3.5733    1.4344   -0.1191 C   0  0  0  0  0  0  0  0  0  0  0  0
   -2.5218    0.6389   -0.1787 N   0  0  0  0  0  0  0  0  0  0  0  0
   -1.2956    1.1238   -0.1322 C   0  0  0  0  0  0  0  0  0  0  0  0
   -1.5827    2.8318   -0.0072 S   0  0  0  0  0  0  0  0  0  0  0  0
   -0.0882    0.4447   -0.1776 N   0  0  0  0  0  0  0  0  0  0  0  0
    1.1729    1.1882   -0.1233 C   0  0  0  0  0  0  0  0  0  0  0  0
    2.3460    0.2087   -0.1968 C   0  0  0  0  0  0  0  0  0  0  0  0
    3.6631    0.9852   -0.1400 C   0  0  0  0  0  0  0  0  0  0  0  0
    6.0600    0.7581   -0.3973 C   0  0  0  0  0  0  0  0  0  0  0  0
    4.8365   -0.8107    0.9827 C   0  0  0  0  0  0  0  0  0  0  0  0
   -4.9701    0.8705   -0.1673 C   0  0  0  0  0  0  0  0  0  0  0  0
   -5.4360    0.7860   -1.6221 C   0  0  0  0  0  0  0  0  0  0  0  0
   -6.7604    0.2513   -1.6679 O   0  0  0  0  0  0  0  0  0  0  0  0
   -7.3266    0.1097   -2.8952 C   0  0  0  0  0  0  0  0  0  0  0  0
   -6.6240    0.4831   -4.0317 C   0  0  0  0  0  0  0  0  0  0  0  0
   -7.1998    0.3332   -5.2785 C   0  0  0  0  0  0  0  0  0  0  0  0
   -8.4790   -0.1787   -5.3935 C   0  0  0  0  0  0  0  0  0  0  0  0
   -9.1834   -0.5462   -4.2620 C   0  0  0  0  0  0  0  0  0  0  0  0
   -8.6102   -0.4032   -3.0132 C   0  0  0  0  0  0  0  0  0  0  0  0
   -9.1068   -0.3358   -6.7545 C   0  0  0  0  0  0  0  0  0  0  0  0
   -9.8609    0.9446   -7.1192 C   0  0  2  0  0  0  0  0  0  0  0  0
  -10.5792    1.1794   -6.3337 H   0  0  0  0  0  0  0  0  0  0  0  0
  -10.5898    0.7443   -8.4229 C   0  0  0  0  0  0  0  0  0  0  0  0
  -10.3398    1.4519   -9.3697 O   0  0  0  0  0  0  0  0  0  0  0  0
   -8.9090    2.0496   -7.2567 N   0  0  0  0  0  0  0  0  0  0  0  0
   -9.3324    3.3580   -7.0678 C   0  0  0  0  0  0  0  0  0  0  0  0
  -10.6785    3.6337   -6.8612 C   0  0  0  0  0  0  0  0  0  0  0  0
  -11.0960    4.9343   -6.6680 C   0  0  0  0  0  0  0  0  0  0  0  0
  -10.1815    5.9764   -6.6893 C   0  0  0  0  0  0  0  0  0  0  0  0
   -8.8440    5.7246   -6.8981 C   0  0  0  0  0  0  0  0  0  0  0  0
   -8.4031    4.4113   -7.0900 C   0  0  0  0  0  0  0  0  0  0  0  0
   -6.9738    4.1344   -7.3144 C   0  0  0  0  0  0  0  0  0  0  0  0
   -6.1932    4.1735   -6.3827 O   0  0  0  0  0  0  0  0  0  0  0  0
   -6.4883    3.8089   -8.6721 C   0  0  0  0  0  0  0  0  0  0  0  0
   -7.3598    3.8686   -9.7616 C   0  0  0  0  0  0  0  0  0  0  0  0
   -6.8987    3.5692  -11.0266 C   0  0  0  0  0  0  0  0  0  0  0  0
   -5.5787    3.1993  -11.2158 C   0  0  0  0  0  0  0  0  0  0  0  0
   -4.7112    3.1326  -10.1398 C   0  0  0  0  0  0  0  0  0  0  0  0
   -5.1575    3.4349   -8.8702 C   0  0  0  0  0  0  0  0  0  0  0  0
   -3.8438    4.8444    0.1316 H   0  0  0  0  0  0  0  0  0  0  0  0
   -4.9913    3.8884   -0.8368 H   0  0  0  0  0  0  0  0  0  0  0  0
   -4.9996    3.7573    0.9383 H   0  0  0  0  0  0  0  0  0  0  0  0
   -0.0782   -0.5226   -0.2494 H   0  0  0  0  0  0  0  0  0  0  0  0
    1.2236    1.8795   -0.9645 H   0  0  0  0  0  0  0  0  0  0  0  0
    1.2248    1.7478    0.8106 H   0  0  0  0  0  0  0  0  0  0  0  0
    2.2953   -0.4827    0.6444 H   0  0  0  0  0  0  0  0  0  0  0  0
    2.2941   -0.3509   -1.1307 H   0  0  0  0  0  0  0  0  0  0  0  0
    3.7138    1.6766   -0.9812 H   0  0  0  0  0  0  0  0  0  0  0  0
    3.7150    1.5449    0.7939 H   0  0  0  0  0  0  0  0  0  0  0  0
    6.2226    1.4360    0.4406 H   0  0  0  0  0  0  0  0  0  0  0  0
    6.8770    0.0383   -0.4462 H   0  0  0  0  0  0  0  0  0  0  0  0
    6.0230    1.3294   -1.3249 H   0  0  0  0  0  0  0  0  0  0  0  0
    3.9100   -1.3800    1.0583 H   0  0  0  0  0  0  0  0  0  0  0  0
    5.6794   -1.4973    0.9045 H   0  0  0  0  0  0  0  0  0  0  0  0
    4.9548   -0.1897    1.8706 H   0  0  0  0  0  0  0  0  0  0  0  0
   -4.9750   -0.1260    0.2743 H   0  0  0  0  0  0  0  0  0  0  0  0
   -5.6434    1.5195    0.3927 H   0  0  0  0  0  0  0  0  0  0  0  0
   -5.4310    1.7825   -2.0637 H   0  0  0  0  0  0  0  0  0  0  0  0
   -4.7627    0.1371   -2.1822 H   0  0  0  0  0  0  0  0  0  0  0  0
   -5.6263    0.8868   -3.9421 H   0  0  0  0  0  0  0  0  0  0  0  0
   -6.6516    0.6195   -6.1639 H   0  0  0  0  0  0  0  0  0  0  0  0
  -10.1826   -0.9457   -4.3544 H   0  0  0  0  0  0  0  0  0  0  0  0
   -9.1607   -0.6907   -2.1297 H   0  0  0  0  0  0  0  0  0  0  0  0
   -8.3284   -0.5222   -7.4944 H   0  0  0  0  0  0  0  0  0  0  0  0
   -9.8021   -1.1751   -6.7392 H   0  0  0  0  0  0  0  0  0  0  0  0
   -7.9828    1.8670   -7.4797 H   0  0  0  0  0  0  0  0  0  0  0  0
  -11.3982    2.8285   -6.8475 H   0  0  0  0  0  0  0  0  0  0  0  0
  -12.1428    5.1427   -6.5030 H   0  0  0  0  0  0  0  0  0  0  0  0
  -10.5202    6.9912   -6.5417 H   0  0  0  0  0  0  0  0  0  0  0  0
   -8.1362    6.5402   -6.9134 H   0  0  0  0  0  0  0  0  0  0  0  0
   -8.3914    4.1525   -9.6146 H   0  0  0  0  0  0  0  0  0  0  0  0
   -7.5705    3.6189  -11.8708 H   0  0  0  0  0  0  0  0  0  0  0  0
   -5.2241    2.9612  -12.2078 H   0  0  0  0  0  0  0  0  0  0  0  0
   -3.6821    2.8435  -10.2945 H   0  0  0  0  0  0  0  0  0  0  0  0
   -4.4795    3.3821   -8.0312 H   0  0  0  0  0  0  0  0  0  0  0  0
    4.7854    0.0278   -0.2334 N   0  3  0  0  0  0  0  0  0  0  0  0
    4.6404   -0.5774   -1.0500 H   0  0  0  0  0  0  0  0  0  0  0  0
  -11.5168   -0.2204   -8.5322 O   0  5  0  0  0  0  0  0  0  0  0  0
  1  2  1  0  0  0  0
  1 42  1  0  0  0  0
  1 43  1  0  0  0  0
  1 44  1  0  0  0  0
  2  6  1  0  0  0  0
  2  3  2  0  0  0  0
  3  4  1  0  0  0  0
  3 13  1  0  0  0  0
  4  5  2  0  0  0  0
  5  6  1  0  0  0  0
  5  7  1  0  0  0  0
  7  8  1  0  0  0  0
  7 45  1  0  0  0  0
  8  9  1  0  0  0  0
  8 46  1  0  0  0  0
  8 47  1  0  0  0  0
  9 10  1  0  0  0  0
  9 48  1  0  0  0  0
  9 49  1  0  0  0  0
 10 50  1  0  0  0  0
 10 51  1  0  0  0  0
 10 78  1  0  0  0  0
 11 52  1  0  0  0  0
 11 53  1  0  0  0  0
 11 54  1  0  0  0  0
 11 78  1  0  0  0  0
 12 55  1  0  0  0  0
 12 56  1  0  0  0  0
 12 57  1  0  0  0  0
 12 78  1  0  0  0  0
 13 14  1  0  0  0  0
 13 58  1  0  0  0  0
 13 59  1  0  0  0  0
 14 15  1  0  0  0  0
 14 60  1  0  0  0  0
 14 61  1  0  0  0  0
 15 16  1  0  0  0  0
 16 21  2  0  0  0  0
 16 17  1  0  0  0  0
 17 18  2  0  0  0  0
 17 62  1  0  0  0  0
 18 19  1  0  0  0  0
 18 63  1  0  0  0  0
 19 20  2  0  0  0  0
 19 22  1  0  0  0  0
 20 21  1  0  0  0  0
 20 64  1  0  0  0  0
 21 65  1  0  0  0  0
 22 23  1  0  0  0  0
 22 66  1  0  0  0  0
 22 67  1  0  0  0  0
 23 24  1  0  0  0  0
 23 25  1  0  0  0  0
 23 27  1  0  0  0  0
 25 26  2  0  0  0  0
 25 80  1  0  0  0  0
 27 28  1  0  0  0  0
 27 68  1  0  0  0  0
 28 33  2  0  0  0  0
 28 29  1  0  0  0  0
 29 30  2  0  0  0  0
 29 69  1  0  0  0  0
 30 31  1  0  0  0  0
 30 70  1  0  0  0  0
 31 32  2  0  0  0  0
 31 71  1  0  0  0  0
 32 33  1  0  0  0  0
 32 72  1  0  0  0  0
 33 34  1  0  0  0  0
 34 35  2  0  0  0  0
 34 36  1  0  0  0  0
 36 41  2  0  0  0  0
 36 37  1  0  0  0  0
 37 38  2  0  0  0  0
 37 73  1  0  0  0  0
 38 39  1  0  0  0  0
 38 74  1  0  0  0  0
 39 40  2  0  0  0  0
 39 75  1  0  0  0  0
 40 41  1  0  0  0  0
 40 76  1  0  0  0  0
 41 77  1  0  0  0  0
 78 79  1  0  0  0  0
M  CHG  2  78   1  80  -1
M  END
$$$$
ZINC04137618
  -OEChem-08230709403D

 82 86  0     1  0  0  0  0  0999 V2000
    3.4536   12.2309    0.3037 C   0  0  0  0  0  0  0  0  0  0  0  0
    3.1662   12.4124    1.7719 C   0  0  0  0  0  0  0  0  0  0  0  0
    2.0871   11.9592    2.4355 C   0  0  0  0  0  0  0  0  0  0  0  0
    2.2061   12.3339    3.7182 N   0  0  0  0  0  0  0  0  0  0  0  0
    3.3309   12.9948    3.8596 C   0  0  0  0  0  0  0  0  0  0  0  0
    3.9421   13.0594    2.6640 O   0  0  0  0  0  0  0  0  0  0  0  0
    3.8379   13.5761    5.1207 C   0  0  0  0  0  0  0  0  0  0  0  0
    3.1021   13.4434    6.2992 C   0  0  0  0  0  0  0  0  0  0  0  0
    3.5837   13.9833    7.4739 C   0  0  0  0  0  0  0  0  0  0  0  0
    4.7877   14.6648    7.4831 C   0  0  0  0  0  0  0  0  0  0  0  0
    5.5193   14.8048    6.3172 C   0  0  0  0  0  0  0  0  0  0  0  0
    5.0517   14.2648    5.1368 C   0  0  0  0  0  0  0  0  0  0  0  0
    0.9448   11.1756    1.8422 C   0  0  0  0  0  0  0  0  0  0  0  0
    1.2527    9.6795    1.9300 C   0  0  0  0  0  0  0  0  0  0  0  0
    0.1695    8.9364    1.3674 O   0  0  0  0  0  0  0  0  0  0  0  0
    0.2848    7.5823    1.3668 C   0  0  0  0  0  0  0  0  0  0  0  0
   -0.7297    6.7988    0.8362 C   0  0  0  0  0  0  0  0  0  0  0  0
   -0.6099    5.4226    0.8363 C   0  0  0  0  0  0  0  0  0  0  0  0
    0.5200    4.8259    1.3647 C   0  0  0  0  0  0  0  0  0  0  0  0
    1.5299    5.6043    1.8992 C   0  0  0  0  0  0  0  0  0  0  0  0
    1.4174    6.9811    1.8963 C   0  0  0  0  0  0  0  0  0  0  0  0
    0.6480    3.3243    1.3635 C   0  0  0  0  0  0  0  0  0  0  0  0
    1.3258    2.8713    0.0688 C   0  0  2  0  0  0  0  0  0  0  0  0
    0.7733    3.2610   -0.7862 H   0  0  0  0  0  0  0  0  0  0  0  0
    1.3435    1.3655    0.0113 C   0  0  0  0  0  0  0  0  0  0  0  0
    2.3962    0.7757   -0.0521 O   0  0  0  0  0  0  0  0  0  0  0  0
    2.7001    3.3775    0.0340 N   0  0  0  0  0  0  0  0  0  0  0  0
    3.3404    3.5642   -1.1834 C   0  0  0  0  0  0  0  0  0  0  0  0
    2.7253    3.1670   -2.3643 C   0  0  0  0  0  0  0  0  0  0  0  0
    3.3636    3.3540   -3.5730 C   0  0  0  0  0  0  0  0  0  0  0  0
    4.6203    3.9380   -3.6210 C   0  0  0  0  0  0  0  0  0  0  0  0
    5.2464    4.3388   -2.4620 C   0  0  0  0  0  0  0  0  0  0  0  0
    4.6113    4.1610   -1.2288 C   0  0  0  0  0  0  0  0  0  0  0  0
    5.2729    4.5921    0.0149 C   0  0  0  0  0  0  0  0  0  0  0  0
    5.3189    5.7730    0.3013 O   0  0  0  0  0  0  0  0  0  0  0  0
    5.8808    3.5892    0.9145 C   0  0  0  0  0  0  0  0  0  0  0  0
    5.9263    2.2452    0.5379 C   0  0  0  0  0  0  0  0  0  0  0  0
    6.5001    1.3154    1.3798 C   0  0  0  0  0  0  0  0  0  0  0  0
    7.0193    1.7100    2.6004 C   0  0  0  0  0  0  0  0  0  0  0  0
    6.9723    3.0392    2.9824 C   0  0  0  0  0  0  0  0  0  0  0  0
    6.4069    3.9804    2.1475 C   0  0  0  0  0  0  0  0  0  0  0  0
    7.6390    0.6875    3.5177 C   0  0  0  0  0  0  0  0  0  0  0  0
    5.6103   -0.6274    3.6529 C   0  0  0  0  0  0  0  0  0  0  0  0
    7.2094   -0.6782    5.4704 C   0  0  0  0  0  0  0  0  0  0  0  0
    3.0283   13.0642   -0.2555 H   0  0  0  0  0  0  0  0  0  0  0  0
    4.5316   12.1998    0.1457 H   0  0  0  0  0  0  0  0  0  0  0  0
    3.0088   11.2974   -0.0408 H   0  0  0  0  0  0  0  0  0  0  0  0
    2.1599   12.9155    6.2925 H   0  0  0  0  0  0  0  0  0  0  0  0
    3.0174   13.8775    8.3875 H   0  0  0  0  0  0  0  0  0  0  0  0
    5.1583   15.0891    8.4045 H   0  0  0  0  0  0  0  0  0  0  0  0
    6.4585   15.3377    6.3311 H   0  0  0  0  0  0  0  0  0  0  0  0
    5.6239   14.3745    4.2275 H   0  0  0  0  0  0  0  0  0  0  0  0
    0.8136   11.4588    0.7979 H   0  0  0  0  0  0  0  0  0  0  0  0
    0.0304   11.3914    2.3949 H   0  0  0  0  0  0  0  0  0  0  0  0
    1.3839    9.3962    2.9744 H   0  0  0  0  0  0  0  0  0  0  0  0
    2.1671    9.4636    1.3774 H   0  0  0  0  0  0  0  0  0  0  0  0
   -1.6123    7.2644    0.4230 H   0  0  0  0  0  0  0  0  0  0  0  0
   -1.3992    4.8122    0.4230 H   0  0  0  0  0  0  0  0  0  0  0  0
    2.4093    5.1356    2.3157 H   0  0  0  0  0  0  0  0  0  0  0  0
    2.2086    7.5889    2.3100 H   0  0  0  0  0  0  0  0  0  0  0  0
   -0.3428    2.8751    1.4314 H   0  0  0  0  0  0  0  0  0  0  0  0
    1.2486    3.0102    2.2172 H   0  0  0  0  0  0  0  0  0  0  0  0
    3.1626    3.5823    0.8617 H   0  0  0  0  0  0  0  0  0  0  0  0
    1.7467    2.7110   -2.3360 H   0  0  0  0  0  0  0  0  0  0  0  0
    2.8810    3.0438   -4.4880 H   0  0  0  0  0  0  0  0  0  0  0  0
    5.1107    4.0795   -4.5728 H   0  0  0  0  0  0  0  0  0  0  0  0
    6.2253    4.7931   -2.5056 H   0  0  0  0  0  0  0  0  0  0  0  0
    5.5175    1.9353   -0.4125 H   0  0  0  0  0  0  0  0  0  0  0  0
    6.5407    0.2765    1.0876 H   0  0  0  0  0  0  0  0  0  0  0  0
    7.3796    3.3404    3.9362 H   0  0  0  0  0  0  0  0  0  0  0  0
    6.3716    5.0176    2.4465 H   0  0  0  0  0  0  0  0  0  0  0  0
    8.0705   -0.1187    2.9244 H   0  0  0  0  0  0  0  0  0  0  0  0
    8.4209    1.1595    4.1125 H   0  0  0  0  0  0  0  0  0  0  0  0
    6.1016   -1.4537    3.1392 H   0  0  0  0  0  0  0  0  0  0  0  0
    4.8587   -1.0206    4.3374 H   0  0  0  0  0  0  0  0  0  0  0  0
    5.1306    0.0220    2.9206 H   0  0  0  0  0  0  0  0  0  0  0  0
    7.8921   -0.0658    6.0593 H   0  0  0  0  0  0  0  0  0  0  0  0
    6.4238   -1.0703    6.1164 H   0  0  0  0  0  0  0  0  0  0  0  0
    7.7586   -1.5064    5.0224 H   0  0  0  0  0  0  0  0  0  0  0  0
    0.1900    0.6795    0.0307 O   0  5  0  0  0  0  0  0  0  0  0  0
    6.5942    0.1631    4.4222 N   0  3  0  0  0  0  0  0  0  0  0  0
    6.1124    0.9524    4.8683 H   0  0  0  0  0  0  0  0  0  0  0  0
  1  2  1  0  0  0  0
  1 45  1  0  0  0  0
  1 46  1  0  0  0  0
  1 47  1  0  0  0  0
  2  6  1  0  0  0  0
  2  3  2  0  0  0  0
  3  4  1  0  0  0  0
  3 13  1  0  0  0  0
  4  5  2  0  0  0  0
  5  6  1  0  0  0  0
  5  7  1  0  0  0  0
  7 12  2  0  0  0  0
  7  8  1  0  0  0  0
  8  9  2  0  0  0  0
  8 48  1  0  0  0  0
  9 10  1  0  0  0  0
  9 49  1  0  0  0  0
 10 11  2  0  0  0  0
 10 50  1  0  0  0  0
 11 12  1  0  0  0  0
 11 51  1  0  0  0  0
 12 52  1  0  0  0  0
 13 14  1  0  0  0  0
 13 53  1  0  0  0  0
 13 54  1  0  0  0  0
 14 15  1  0  0  0  0
 14 55  1  0  0  0  0
 14 56  1  0  0  0  0
 15 16  1  0  0  0  0
 16 21  2  0  0  0  0
 16 17  1  0  0  0  0
 17 18  2  0  0  0  0
 17 57  1  0  0  0  0
 18 19  1  0  0  0  0
 18 58  1  0  0  0  0
 19 20  2  0  0  0  0
 19 22  1  0  0  0  0
 20 21  1  0  0  0  0
 20 59  1  0  0  0  0
 21 60  1  0  0  0  0
 22 23  1  0  0  0  0
 22 61  1  0  0  0  0
 22 62  1  0  0  0  0
 23 24  1  0  0  0  0
 23 25  1  0  0  0  0
 23 27  1  0  0  0  0
 25 26  2  0  0  0  0
 25 80  1  0  0  0  0
 27 28  1  0  0  0  0
 27 63  1  0  0  0  0
 28 33  2  0  0  0  0
 28 29  1  0  0  0  0
 29 30  2  0  0  0  0
 29 64  1  0  0  0  0
 30 31  1  0  0  0  0
 30 65  1  0  0  0  0
 31 32  2  0  0  0  0
 31 66  1  0  0  0  0
 32 33  1  0  0  0  0
 32 67  1  0  0  0  0
 33 34  1  0  0  0  0
 34 35  2  0  0  0  0
 34 36  1  0  0  0  0
 36 41  2  0  0  0  0
 36 37  1  0  0  0  0
 37 38  2  0  0  0  0
 37 68  1  0  0  0  0
 38 39  1  0  0  0  0
 38 69  1  0  0  0  0
 39 40  2  0  0  0  0
 39 42  1  0  0  0  0
 40 41  1  0  0  0  0
 40 70  1  0  0  0  0
 41 71  1  0  0  0  0
 42 72  1  0  0  0  0
 42 73  1  0  0  0  0
 42 81  1  0  0  0  0
 43 74  1  0  0  0  0
 43 75  1  0  0  0  0
 43 76  1  0  0  0  0
 43 81  1  0  0  0  0
 44 77  1  0  0  0  0
 44 78  1  0  0  0  0
 44 79  1  0  0  0  0
 44 81  1  0  0  0  0
 81 82  1  0  0  0  0
M  CHG  2  80  -1  81   1
M  END
$$$$
ZINC04137619
  -OEChem-08230709403D

 68 72  0     1  0  0  0  0  0999 V2000
   -8.6929    6.9877    2.8665 C   0  0  0  0  0  0  0  0  0  0  0  0
   -7.9808    8.0194    2.1084 N   0  0  0  0  0  0  0  0  0  0  0  0
   -7.6271    7.7849    0.7062 C   0  0  0  0  0  0  0  0  0  0  0  0
   -6.2433    7.1365    0.6309 C   0  0  0  0  0  0  0  0  0  0  0  0
   -6.2913    5.8403    1.2305 O   0  0  0  0  0  0  0  0  0  0  0  0
   -5.1361    5.1247    1.2466 C   0  0  0  0  0  0  0  0  0  0  0  0
   -5.1109    3.8586    1.8131 C   0  0  0  0  0  0  0  0  0  0  0  0
   -3.9352    3.1334    1.8285 C   0  0  0  0  0  0  0  0  0  0  0  0
   -2.7844    3.6683    1.2797 C   0  0  0  0  0  0  0  0  0  0  0  0
   -2.8055    4.9322    0.7196 C   0  0  0  0  0  0  0  0  0  0  0  0
   -3.9799    5.6593    0.6969 C   0  0  0  0  0  0  0  0  0  0  0  0
   -1.5033    2.8747    1.2975 C   0  0  0  0  0  0  0  0  0  0  0  0
   -1.4101    2.0281    0.0265 C   0  0  1  0  0  0  0  0  0  0  0  0
   -1.5104    2.6721   -0.8472 H   0  0  0  0  0  0  0  0  0  0  0  0
   -0.0755    1.3294   -0.0149 C   0  0  0  0  0  0  0  0  0  0  0  0
   -0.0261    0.1225   -0.0436 O   0  0  0  0  0  0  0  0  0  0  0  0
   -2.4836    1.0311    0.0241 N   0  0  0  0  0  0  0  0  0  0  0  0
   -2.9428    0.5105   -1.1749 C   0  0  0  0  0  0  0  0  0  0  0  0
   -3.9694   -0.4456   -1.2103 C   0  0  0  0  0  0  0  0  0  0  0  0
   -4.1090   -0.7127   -2.9718 S   0  0  0  0  0  0  0  0  0  0  0  0
   -2.8716    0.3973   -3.4725 C   0  0  0  0  0  0  0  0  0  0  0  0
   -2.4397    0.8951   -2.3227 N   0  0  0  0  0  0  0  0  0  0  0  0
   -2.3285    0.7735   -5.1060 S   0  0  0  0  0  0  0  0  0  0  0  0
   -3.4190   -0.3131   -6.0579 C   0  0  0  0  0  0  0  0  0  0  0  0
   -4.6891   -1.0308   -0.1530 C   0  0  0  0  0  0  0  0  0  0  0  0
   -4.3679   -0.8053    1.0016 O   0  0  0  0  0  0  0  0  0  0  0  0
   -5.8363   -1.9205   -0.4417 C   0  0  0  0  0  0  0  0  0  0  0  0
   -6.2490   -2.8606    0.5032 C   0  0  0  0  0  0  0  0  0  0  0  0
   -7.3220   -3.6836    0.2300 C   0  0  0  0  0  0  0  0  0  0  0  0
   -7.9822   -3.5852   -0.9820 C   0  0  0  0  0  0  0  0  0  0  0  0
   -7.5745   -2.6586   -1.9252 C   0  0  0  0  0  0  0  0  0  0  0  0
   -6.5060   -1.8265   -1.6622 C   0  0  0  0  0  0  0  0  0  0  0  0
   -7.6442    9.2090    2.7135 C   0  0  0  0  0  0  0  0  0  0  0  0
   -7.0053   10.1917    2.1317 N   0  0  0  0  0  0  0  0  0  0  0  0
   -6.8508   11.2038    3.0292 C   0  0  0  0  0  0  0  0  0  0  0  0
   -6.2614   12.4670    2.9649 C   0  0  0  0  0  0  0  0  0  0  0  0
   -6.2609   13.2782    4.0785 C   0  0  0  0  0  0  0  0  0  0  0  0
   -6.8422   12.8466    5.2609 C   0  0  0  0  0  0  0  0  0  0  0  0
   -7.4285   11.5994    5.3378 C   0  0  0  0  0  0  0  0  0  0  0  0
   -7.4378   10.7710    4.2275 C   0  0  0  0  0  0  0  0  0  0  0  0
   -7.9186    9.5287    3.9903 O   0  0  0  0  0  0  0  0  0  0  0  0
   -7.9715    6.3281    3.3487 H   0  0  0  0  0  0  0  0  0  0  0  0
   -9.3170    7.4601    3.6252 H   0  0  0  0  0  0  0  0  0  0  0  0
   -9.3202    6.4074    2.1898 H   0  0  0  0  0  0  0  0  0  0  0  0
   -7.6129    8.7346    0.1713 H   0  0  0  0  0  0  0  0  0  0  0  0
   -8.3638    7.1227    0.2514 H   0  0  0  0  0  0  0  0  0  0  0  0
   -5.5220    7.7566    1.1633 H   0  0  0  0  0  0  0  0  0  0  0  0
   -5.9420    7.0433   -0.4125 H   0  0  0  0  0  0  0  0  0  0  0  0
   -6.0097    3.4401    2.2413 H   0  0  0  0  0  0  0  0  0  0  0  0
   -3.9150    2.1477    2.2694 H   0  0  0  0  0  0  0  0  0  0  0  0
   -1.9042    5.3497    0.2957 H   0  0  0  0  0  0  0  0  0  0  0  0
   -3.9971    6.6447    0.2550 H   0  0  0  0  0  0  0  0  0  0  0  0
   -1.4923    2.2221    2.1704 H   0  0  0  0  0  0  0  0  0  0  0  0
   -0.6542    3.5566    1.3429 H   0  0  0  0  0  0  0  0  0  0  0  0
   -2.8728    0.7355    0.8619 H   0  0  0  0  0  0  0  0  0  0  0  0
   -4.4578   -0.0457   -5.8639 H   0  0  0  0  0  0  0  0  0  0  0  0
   -3.2071   -0.1996   -7.1210 H   0  0  0  0  0  0  0  0  0  0  0  0
   -3.2490   -1.3483   -5.7619 H   0  0  0  0  0  0  0  0  0  0  0  0
   -5.7319   -2.9412    1.4480 H   0  0  0  0  0  0  0  0  0  0  0  0
   -7.6446   -4.4094    0.9618 H   0  0  0  0  0  0  0  0  0  0  0  0
   -8.8190   -4.2345   -1.1928 H   0  0  0  0  0  0  0  0  0  0  0  0
   -8.0937   -2.5869   -2.8695 H   0  0  0  0  0  0  0  0  0  0  0  0
   -6.1883   -1.1042   -2.3996 H   0  0  0  0  0  0  0  0  0  0  0  0
   -5.8077   12.8076    2.0459 H   0  0  0  0  0  0  0  0  0  0  0  0
   -5.8054   14.2562    4.0300 H   0  0  0  0  0  0  0  0  0  0  0  0
   -6.8358   13.4906    6.1278 H   0  0  0  0  0  0  0  0  0  0  0  0
   -7.8791   11.2697    6.2623 H   0  0  0  0  0  0  0  0  0  0  0  0
    1.0581    2.0480   -0.0256 O   0  5  0  0  0  0  0  0  0  0  0  0
  1  2  1  0  0  0  0
  1 42  1  0  0  0  0
  1 43  1  0  0  0  0
  1 44  1  0  0  0  0
  2  3  1  0  0  0  0
  2 33  1  0  0  0  0
  3  4  1  0  0  0  0
  3 45  1  0  0  0  0
  3 46  1  0  0  0  0
  4  5  1  0  0  0  0
  4 47  1  0  0  0  0
  4 48  1  0  0  0  0
  5  6  1  0  0  0  0
  6 11  2  0  0  0  0
  6  7  1  0  0  0  0
  7  8  2  0  0  0  0
  7 49  1  0  0  0  0
  8  9  1  0  0  0  0
  8 50  1  0  0  0  0
  9 10  2  0  0  0  0
  9 12  1  0  0  0  0
 10 11  1  0  0  0  0
 10 51  1  0  0  0  0
 11 52  1  0  0  0  0
 12 13  1  0  0  0  0
 12 53  1  0  0  0  0
 12 54  1  0  0  0  0
 13 14  1  0  0  0  0
 13 15  1  0  0  0  0
 13 17  1  0  0  0  0
 15 16  2  0  0  0  0
 15 68  1  0  0  0  0
 17 18  1  0  0  0  0
 17 55  1  0  0  0  0
 18 22  1  0  0  0  0
 18 19  2  0  0  0  0
 19 20  1  0  0  0  0
 19 25  1  0  0  0  0
 20 21  1  0  0  0  0
 21 22  2  0  0  0  0
 21 23  1  0  0  0  0
 23 24  1  0  0  0  0
 24 56  1  0  0  0  0
 24 57  1  0  0  0  0
 24 58  1  0  0  0  0
 25 26  2  0  0  0  0
 25 27  1  0  0  0  0
 27 32  2  0  0  0  0
 27 28  1  0  0  0  0
 28 29  2  0  0  0  0
 28 59  1  0  0  0  0
 29 30  1  0  0  0  0
 29 60  1  0  0  0  0
 30 31  2  0  0  0  0
 30 61  1  0  0  0  0
 31 32  1  0  0  0  0
 31 62  1  0  0  0  0
 32 63  1  0  0  0  0
 33 41  1  0  0  0  0
 33 34  2  0  0  0  0
 34 35  1  0  0  0  0
 35 40  2  0  0  0  0
 35 36  1  0  0  0  0
 36 37  2  0  0  0  0
 36 64  1  0  0  0  0
 37 38  1  0  0  0  0
 37 65  1  0  0  0  0
 38 39  2  0  0  0  0
 38 66  1  0  0  0  0
 39 40  1  0  0  0  0
 39 67  1  0  0  0  0
 40 41  1  0  0  0  0
M  CHG  1  68  -1
M  END
$$$$
ZINC04137620
  -OEChem-08230709403D

 78 83  0     1  0  0  0  0  0999 V2000
    1.0206   10.4364   -9.0684 C   0  0  0  0  0  0  0  0  0  0  0  0
    1.7494    9.2043   -8.7574 N   0  0  0  0  0  0  0  0  0  0  0  0
    1.0659    8.1002   -8.0791 C   0  0  0  0  0  0  0  0  0  0  0  0
    1.2100    8.2645   -6.5648 C   0  0  0  0  0  0  0  0  0  0  0  0
    0.5253    9.4470   -6.1467 O   0  0  0  0  0  0  0  0  0  0  0  0
    0.5558    9.7413   -4.8202 C   0  0  0  0  0  0  0  0  0  0  0  0
   -0.0881   10.8744   -4.3449 C   0  0  0  0  0  0  0  0  0  0  0  0
   -0.0553   11.1716   -2.9962 C   0  0  0  0  0  0  0  0  0  0  0  0
    0.6183   10.3404   -2.1202 C   0  0  0  0  0  0  0  0  0  0  0  0
    1.2656    9.2135   -2.5922 C   0  0  0  0  0  0  0  0  0  0  0  0
    1.2313    8.9092   -3.9393 C   0  0  0  0  0  0  0  0  0  0  0  0
    0.6521   10.6667   -0.6494 C   0  0  0  0  0  0  0  0  0  0  0  0
   -0.5414   10.0093    0.0465 C   0  0  2  0  0  0  0  0  0  0  0  0
   -1.4638   10.3172   -0.4459 H   0  0  0  0  0  0  0  0  0  0  0  0
   -0.5772   10.4349    1.4917 C   0  0  0  0  0  0  0  0  0  0  0  0
   -0.5006    9.6061    2.3676 O   0  0  0  0  0  0  0  0  0  0  0  0
   -0.4097    8.5523   -0.0305 N   0  0  0  0  0  0  0  0  0  0  0  0
   -1.5394    7.7485    0.0400 C   0  0  0  0  0  0  0  0  0  0  0  0
   -2.7830    8.3124    0.2973 C   0  0  0  0  0  0  0  0  0  0  0  0
   -3.9040    7.5114    0.3677 C   0  0  0  0  0  0  0  0  0  0  0  0
   -3.8011    6.1411    0.1826 C   0  0  0  0  0  0  0  0  0  0  0  0
   -2.5787    5.5638   -0.0791 C   0  0  0  0  0  0  0  0  0  0  0  0
   -1.4315    6.3606   -0.1480 C   0  0  0  0  0  0  0  0  0  0  0  0
   -0.1194    5.7492   -0.4221 C   0  0  0  0  0  0  0  0  0  0  0  0
    0.1604    5.3898   -1.5498 O   0  0  0  0  0  0  0  0  0  0  0  0
    0.8560    5.5727    0.6725 C   0  0  0  0  0  0  0  0  0  0  0  0
    2.1415    5.0991    0.3944 C   0  0  0  0  0  0  0  0  0  0  0  0
    3.0494    4.9347    1.4155 C   0  0  0  0  0  0  0  0  0  0  0  0
    2.6872    5.2401    2.7280 C   0  0  0  0  0  0  0  0  0  0  0  0
    1.4027    5.7079    3.0077 C   0  0  0  0  0  0  0  0  0  0  0  0
    0.4946    5.8788    1.9877 C   0  0  0  0  0  0  0  0  0  0  0  0
    3.6660    5.0616    3.8271 C   0  0  0  0  0  0  0  0  0  0  0  0
    4.9466    4.5835    3.5529 C   0  0  0  0  0  0  0  0  0  0  0  0
    5.8553    4.4248    4.5792 C   0  0  0  0  0  0  0  0  0  0  0  0
    5.4940    4.7282    5.8796 C   0  0  0  0  0  0  0  0  0  0  0  0
    4.2229    5.1976    6.1585 C   0  0  0  0  0  0  0  0  0  0  0  0
    3.3076    5.3657    5.1396 C   0  0  0  0  0  0  0  0  0  0  0  0
    3.0765    9.0839   -9.1025 C   0  0  0  0  0  0  0  0  0  0  0  0
    3.8200    8.0331   -8.8673 N   0  0  0  0  0  0  0  0  0  0  0  0
    5.0718    8.2676   -9.3486 C   0  0  0  0  0  0  0  0  0  0  0  0
    6.2487    7.5185   -9.3785 C   0  0  0  0  0  0  0  0  0  0  0  0
    7.3844    8.0525   -9.9468 C   0  0  0  0  0  0  0  0  0  0  0  0
    7.3641    9.3286  -10.4885 C   0  0  0  0  0  0  0  0  0  0  0  0
    6.2065   10.0802  -10.4655 C   0  0  0  0  0  0  0  0  0  0  0  0
    5.0556    9.5584   -9.8978 C   0  0  0  0  0  0  0  0  0  0  0  0
    3.7996   10.0311   -9.7253 O   0  0  0  0  0  0  0  0  0  0  0  0
    1.1120   11.1329   -8.2349 H   0  0  0  0  0  0  0  0  0  0  0  0
    1.4388   10.8889   -9.9676 H   0  0  0  0  0  0  0  0  0  0  0  0
   -0.0315   10.2043   -9.2341 H   0  0  0  0  0  0  0  0  0  0  0  0
    1.5112    7.1539   -8.3859 H   0  0  0  0  0  0  0  0  0  0  0  0
    0.0092    8.1081   -8.3465 H   0  0  0  0  0  0  0  0  0  0  0  0
    2.2660    8.3458   -6.3071 H   0  0  0  0  0  0  0  0  0  0  0  0
    0.7791    7.3984   -6.0627 H   0  0  0  0  0  0  0  0  0  0  0  0
   -0.6144   11.5239   -5.0287 H   0  0  0  0  0  0  0  0  0  0  0  0
   -0.5564   12.0536   -2.6256 H   0  0  0  0  0  0  0  0  0  0  0  0
    1.7951    8.5685   -1.9067 H   0  0  0  0  0  0  0  0  0  0  0  0
    1.7330    8.0263   -4.3069 H   0  0  0  0  0  0  0  0  0  0  0  0
    0.6007   11.7473   -0.5156 H   0  0  0  0  0  0  0  0  0  0  0  0
    1.5784   10.2905   -0.2150 H   0  0  0  0  0  0  0  0  0  0  0  0
    0.4669    8.1491   -0.1306 H   0  0  0  0  0  0  0  0  0  0  0  0
   -2.8720    9.3789    0.4427 H   0  0  0  0  0  0  0  0  0  0  0  0
   -4.8682    7.9547    0.5679 H   0  0  0  0  0  0  0  0  0  0  0  0
   -4.6854    5.5236    0.2396 H   0  0  0  0  0  0  0  0  0  0  0  0
   -2.5052    4.4964   -0.2265 H   0  0  0  0  0  0  0  0  0  0  0  0
    2.4221    4.8626   -0.6214 H   0  0  0  0  0  0  0  0  0  0  0  0
    4.0426    4.5688    1.2009 H   0  0  0  0  0  0  0  0  0  0  0  0
    1.1223    5.9401    4.0245 H   0  0  0  0  0  0  0  0  0  0  0  0
   -0.4981    6.2451    2.2039 H   0  0  0  0  0  0  0  0  0  0  0  0
    5.2283    4.3420    2.5386 H   0  0  0  0  0  0  0  0  0  0  0  0
    6.8492    4.0591    4.3674 H   0  0  0  0  0  0  0  0  0  0  0  0
    6.2069    4.5979    6.6803 H   0  0  0  0  0  0  0  0  0  0  0  0
    3.9463    5.4325    7.1757 H   0  0  0  0  0  0  0  0  0  0  0  0
    2.3154    5.7318    5.3585 H   0  0  0  0  0  0  0  0  0  0  0  0
    6.2692    6.5239   -8.9581 H   0  0  0  0  0  0  0  0  0  0  0  0
    8.2958    7.4736   -9.9709 H   0  0  0  0  0  0  0  0  0  0  0  0
    8.2603    9.7375  -10.9312 H   0  0  0  0  0  0  0  0  0  0  0  0
    6.1983   11.0736  -10.8890 H   0  0  0  0  0  0  0  0  0  0  0  0
   -0.6942   11.7346    1.8059 O   0  5  0  0  0  0  0  0  0  0  0  0
  1  2  1  0  0  0  0
  1 47  1  0  0  0  0
  1 48  1  0  0  0  0
  1 49  1  0  0  0  0
  2  3  1  0  0  0  0
  2 38  1  0  0  0  0
  3  4  1  0  0  0  0
  3 50  1  0  0  0  0
  3 51  1  0  0  0  0
  4  5  1  0  0  0  0
  4 52  1  0  0  0  0
  4 53  1  0  0  0  0
  5  6  1  0  0  0  0
  6 11  2  0  0  0  0
  6  7  1  0  0  0  0
  7  8  2  0  0  0  0
  7 54  1  0  0  0  0
  8  9  1  0  0  0  0
  8 55  1  0  0  0  0
  9 10  2  0  0  0  0
  9 12  1  0  0  0  0
 10 11  1  0  0  0  0
 10 56  1  0  0  0  0
 11 57  1  0  0  0  0
 12 13  1  0  0  0  0
 12 58  1  0  0  0  0
 12 59  1  0  0  0  0
 13 14  1  0  0  0  0
 13 15  1  0  0  0  0
 13 17  1  0  0  0  0
 15 16  2  0  0  0  0
 15 78  1  0  0  0  0
 17 18  1  0  0  0  0
 17 60  1  0  0  0  0
 18 23  2  0  0  0  0
 18 19  1  0  0  0  0
 19 20  2  0  0  0  0
 19 61  1  0  0  0  0
 20 21  1  0  0  0  0
 20 62  1  0  0  0  0
 21 22  2  0  0  0  0
 21 63  1  0  0  0  0
 22 23  1  0  0  0  0
 22 64  1  0  0  0  0
 23 24  1  0  0  0  0
 24 25  2  0  0  0  0
 24 26  1  0  0  0  0
 26 31  2  0  0  0  0
 26 27  1  0  0  0  0
 27 28  2  0  0  0  0
 27 65  1  0  0  0  0
 28 29  1  0  0  0  0
 28 66  1  0  0  0  0
 29 30  2  0  0  0  0
 29 32  1  0  0  0  0
 30 31  1  0  0  0  0
 30 67  1  0  0  0  0
 31 68  1  0  0  0  0
 32 37  2  0  0  0  0
 32 33  1  0  0  0  0
 33 34  2  0  0  0  0
 33 69  1  0  0  0  0
 34 35  1  0  0  0  0
 34 70  1  0  0  0  0
 35 36  2  0  0  0  0
 35 71  1  0  0  0  0
 36 37  1  0  0  0  0
 36 72  1  0  0  0  0
 37 73  1  0  0  0  0
 38 46  1  0  0  0  0
 38 39  2  0  0  0  0
 39 40  1  0  0  0  0
 40 45  2  0  0  0  0
 40 41  1  0  0  0  0
 41 42  2  0  0  0  0
 41 74  1  0  0  0  0
 42 43  1  0  0  0  0
 42 75  1  0  0  0  0
 43 44  2  0  0  0  0
 43 76  1  0  0  0  0
 44 45  1  0  0  0  0
 44 77  1  0  0  0  0
 45 46  1  0  0  0  0
M  CHG  1  78  -1
M  END
$$$$
ZINC04137621
  -OEChem-08230709403D

 82 87  0     1  0  0  0  0  0999 V2000
   -6.0915    7.3081   -8.9889 C   0  0  0  0  0  0  0  0  0  0  0  0
   -4.6587    7.3169   -8.6838 N   0  0  0  0  0  0  0  0  0  0  0  0
   -4.0430    6.1623   -8.0250 C   0  0  0  0  0  0  0  0  0  0  0  0
   -4.1065    6.3471   -6.5075 C   0  0  0  0  0  0  0  0  0  0  0  0
   -5.4712    6.3408   -6.0837 O   0  0  0  0  0  0  0  0  0  0  0  0
   -5.7049    6.4952   -4.7538 C   0  0  0  0  0  0  0  0  0  0  0  0
   -7.0062    6.4987   -4.2729 C   0  0  0  0  0  0  0  0  0  0  0  0
   -7.2411    6.6562   -2.9207 C   0  0  0  0  0  0  0  0  0  0  0  0
   -6.1806    6.8098   -2.0468 C   0  0  0  0  0  0  0  0  0  0  0  0
   -4.8831    6.8122   -2.5244 C   0  0  0  0  0  0  0  0  0  0  0  0
   -4.6426    6.6499   -3.8750 C   0  0  0  0  0  0  0  0  0  0  0  0
   -6.4398    6.9809   -0.5722 C   0  0  0  0  0  0  0  0  0  0  0  0
   -6.4661    5.6085    0.1037 C   0  0  2  0  0  0  0  0  0  0  0  0
   -7.1968    4.9718   -0.3950 H   0  0  0  0  0  0  0  0  0  0  0  0
   -6.8461    5.7695    1.5530 C   0  0  0  0  0  0  0  0  0  0  0  0
   -6.0868    5.4077    2.4205 O   0  0  0  0  0  0  0  0  0  0  0  0
   -5.1395    4.9936    0.0121 N   0  0  0  0  0  0  0  0  0  0  0  0
   -5.0098    3.6125    0.0617 C   0  0  0  0  0  0  0  0  0  0  0  0
   -6.1198    2.8151    0.3121 C   0  0  0  0  0  0  0  0  0  0  0  0
   -5.9872    1.4430    0.3666 C   0  0  0  0  0  0  0  0  0  0  0  0
   -4.7506    0.8481    0.1670 C   0  0  0  0  0  0  0  0  0  0  0  0
   -3.6396    1.6204   -0.0881 C   0  0  0  0  0  0  0  0  0  0  0  0
   -3.7565    3.0128   -0.1468 C   0  0  0  0  0  0  0  0  0  0  0  0
   -2.5723    3.8455   -0.4193 C   0  0  0  0  0  0  0  0  0  0  0  0
   -2.1263    3.9173   -1.5483 O   0  0  0  0  0  0  0  0  0  0  0  0
   -1.9262    4.5938    0.6796 C   0  0  0  0  0  0  0  0  0  0  0  0
   -2.3608    4.4211    1.9957 C   0  0  0  0  0  0  0  0  0  0  0  0
   -1.7592    5.1254    3.0179 C   0  0  0  0  0  0  0  0  0  0  0  0
   -0.7187    5.9948    2.7456 C   0  0  0  0  0  0  0  0  0  0  0  0
   -0.2758    6.1689    1.4413 C   0  0  0  0  0  0  0  0  0  0  0  0
   -0.8761    5.4715    0.4066 C   0  0  0  0  0  0  0  0  0  0  0  0
    0.7471    7.0247    1.1799 O   0  0  0  0  0  0  0  0  0  0  0  0
    1.3195    7.7114    2.2947 C   0  0  0  0  0  0  0  0  0  0  0  0
    2.4309    8.6090    1.8151 C   0  0  0  0  0  0  0  0  0  0  0  0
    3.7259    8.1299    1.7477 C   0  0  0  0  0  0  0  0  0  0  0  0
    4.7445    8.9517    1.3027 C   0  0  0  0  0  0  0  0  0  0  0  0
    4.4700   10.2558    0.9356 C   0  0  0  0  0  0  0  0  0  0  0  0
    3.1761   10.7366    1.0085 C   0  0  0  0  0  0  0  0  0  0  0  0
    2.1565    9.9132    1.4480 C   0  0  0  0  0  0  0  0  0  0  0  0
   -3.8910    8.4100   -9.0161 C   0  0  0  0  0  0  0  0  0  0  0  0
   -2.6080    8.5235   -8.7847 N   0  0  0  0  0  0  0  0  0  0  0  0
   -2.1858    9.7312   -9.2501 C   0  0  0  0  0  0  0  0  0  0  0  0
   -0.9478   10.3747   -9.2757 C   0  0  0  0  0  0  0  0  0  0  0  0
   -0.8433   11.6334   -9.8261 C   0  0  0  0  0  0  0  0  0  0  0  0
   -1.9601   12.2631  -10.3538 C   0  0  0  0  0  0  0  0  0  0  0  0
   -3.1904   11.6376  -10.3348 C   0  0  0  0  0  0  0  0  0  0  0  0
   -3.3132   10.3719   -9.7852 C   0  0  0  0  0  0  0  0  0  0  0  0
   -4.3509    9.5194   -9.6207 O   0  0  0  0  0  0  0  0  0  0  0  0
   -6.6449    7.7239   -8.1469 H   0  0  0  0  0  0  0  0  0  0  0  0
   -6.2773    7.9099   -9.8785 H   0  0  0  0  0  0  0  0  0  0  0  0
   -6.4185    6.2839   -9.1683 H   0  0  0  0  0  0  0  0  0  0  0  0
   -3.0021    6.0780   -8.3375 H   0  0  0  0  0  0  0  0  0  0  0  0
   -4.5804    5.2558   -8.3034 H   0  0  0  0  0  0  0  0  0  0  0  0
   -3.6466    7.2978   -6.2377 H   0  0  0  0  0  0  0  0  0  0  0  0
   -3.5708    5.5328   -6.0196 H   0  0  0  0  0  0  0  0  0  0  0  0
   -7.8348    6.3781   -4.9549 H   0  0  0  0  0  0  0  0  0  0  0  0
   -8.2539    6.6590   -2.5458 H   0  0  0  0  0  0  0  0  0  0  0  0
   -4.0567    6.9371   -1.8404 H   0  0  0  0  0  0  0  0  0  0  0  0
   -3.6287    6.6479   -4.2471 H   0  0  0  0  0  0  0  0  0  0  0  0
   -7.4001    7.4758   -0.4271 H   0  0  0  0  0  0  0  0  0  0  0  0
   -5.6483    7.5875   -0.1322 H   0  0  0  0  0  0  0  0  0  0  0  0
   -4.3518    5.5516   -0.0832 H   0  0  0  0  0  0  0  0  0  0  0  0
   -7.0867    3.2701    0.4684 H   0  0  0  0  0  0  0  0  0  0  0  0
   -6.8523    0.8280    0.5657 H   0  0  0  0  0  0  0  0  0  0  0  0
   -4.6583   -0.2270    0.2123 H   0  0  0  0  0  0  0  0  0  0  0  0
   -2.6791    1.1515   -0.2431 H   0  0  0  0  0  0  0  0  0  0  0  0
   -3.1702    3.7396    2.2125 H   0  0  0  0  0  0  0  0  0  0  0  0
   -2.0989    4.9941    4.0346 H   0  0  0  0  0  0  0  0  0  0  0  0
   -0.2486    6.5401    3.5506 H   0  0  0  0  0  0  0  0  0  0  0  0
   -0.5330    5.6066   -0.6085 H   0  0  0  0  0  0  0  0  0  0  0  0
    0.5528    8.3122    2.7840 H   0  0  0  0  0  0  0  0  0  0  0  0
    1.7188    6.9852    3.0027 H   0  0  0  0  0  0  0  0  0  0  0  0
    3.9410    7.1124    2.0387 H   0  0  0  0  0  0  0  0  0  0  0  0
    5.7554    8.5759    1.2455 H   0  0  0  0  0  0  0  0  0  0  0  0
    5.2665   10.8990    0.5915 H   0  0  0  0  0  0  0  0  0  0  0  0
    2.9616   11.7555    0.7217 H   0  0  0  0  0  0  0  0  0  0  0  0
    1.1455   10.2888    1.5050 H   0  0  0  0  0  0  0  0  0  0  0  0
   -0.0751    9.8879   -8.8661 H   0  0  0  0  0  0  0  0  0  0  0  0
    0.1143   12.1324   -9.8468 H   0  0  0  0  0  0  0  0  0  0  0  0
   -1.8668   13.2499  -10.7825 H   0  0  0  0  0  0  0  0  0  0  0  0
   -4.0561   12.1344  -10.7474 H   0  0  0  0  0  0  0  0  0  0  0  0
   -8.0282    6.3148    1.8803 O   0  5  0  0  0  0  0  0  0  0  0  0
  1  2  1  0  0  0  0
  1 49  1  0  0  0  0
  1 50  1  0  0  0  0
  1 51  1  0  0  0  0
  2  3  1  0  0  0  0
  2 40  1  0  0  0  0
  3  4  1  0  0  0  0
  3 52  1  0  0  0  0
  3 53  1  0  0  0  0
  4  5  1  0  0  0  0
  4 54  1  0  0  0  0
  4 55  1  0  0  0  0
  5  6  1  0  0  0  0
  6 11  2  0  0  0  0
  6  7  1  0  0  0  0
  7  8  2  0  0  0  0
  7 56  1  0  0  0  0
  8  9  1  0  0  0  0
  8 57  1  0  0  0  0
  9 10  2  0  0  0  0
  9 12  1  0  0  0  0
 10 11  1  0  0  0  0
 10 58  1  0  0  0  0
 11 59  1  0  0  0  0
 12 13  1  0  0  0  0
 12 60  1  0  0  0  0
 12 61  1  0  0  0  0
 13 14  1  0  0  0  0
 13 15  1  0  0  0  0
 13 17  1  0  0  0  0
 15 16  2  0  0  0  0
 15 82  1  0  0  0  0
 17 18  1  0  0  0  0
 17 62  1  0  0  0  0
 18 23  2  0  0  0  0
 18 19  1  0  0  0  0
 19 20  2  0  0  0  0
 19 63  1  0  0  0  0
 20 21  1  0  0  0  0
 20 64  1  0  0  0  0
 21 22  2  0  0  0  0
 21 65  1  0  0  0  0
 22 23  1  0  0  0  0
 22 66  1  0  0  0  0
 23 24  1  0  0  0  0
 24 25  2  0  0  0  0
 24 26  1  0  0  0  0
 26 31  2  0  0  0  0
 26 27  1  0  0  0  0
 27 28  2  0  0  0  0
 27 67  1  0  0  0  0
 28 29  1  0  0  0  0
 28 68  1  0  0  0  0
 29 30  2  0  0  0  0
 29 69  1  0  0  0  0
 30 31  1  0  0  0  0
 30 32  1  0  0  0  0
 31 70  1  0  0  0  0
 32 33  1  0  0  0  0
 33 34  1  0  0  0  0
 33 71  1  0  0  0  0
 33 72  1  0  0  0  0
 34 39  2  0  0  0  0
 34 35  1  0  0  0  0
 35 36  2  0  0  0  0
 35 73  1  0  0  0  0
 36 37  1  0  0  0  0
 36 74  1  0  0  0  0
 37 38  2  0  0  0  0
 37 75  1  0  0  0  0
 38 39  1  0  0  0  0
 38 76  1  0  0  0  0
 39 77  1  0  0  0  0
 40 48  1  0  0  0  0
 40 41  2  0  0  0  0
 41 42  1  0  0  0  0
 42 47  2  0  0  0  0
 42 43  1  0  0  0  0
 43 44  2  0  0  0  0
 43 78  1  0  0  0  0
 44 45  1  0  0  0  0
 44 79  1  0  0  0  0
 45 46  2  0  0  0  0
 45 80  1  0  0  0  0
 46 47  1  0  0  0  0
 46 81  1  0  0  0  0
 47 48  1  0  0  0  0
M  CHG  1  82  -1
M  END
$$$$
ZINC04137622
  -OEChem-08230709403D

 82 87  0     1  0  0  0  0  0999 V2000
   -3.5685    0.9977    9.6387 C   0  0  0  0  0  0  0  0  0  0  0  0
   -2.7663   -0.1604    9.2367 N   0  0  0  0  0  0  0  0  0  0  0  0
   -1.5797    0.0260    8.3980 C   0  0  0  0  0  0  0  0  0  0  0  0
   -1.9786   -0.0612    6.9235 C   0  0  0  0  0  0  0  0  0  0  0  0
   -2.8455    1.0277    6.5994 O   0  0  0  0  0  0  0  0  0  0  0  0
   -3.2949    1.0984    5.3188 C   0  0  0  0  0  0  0  0  0  0  0  0
   -4.1399    2.1296    4.9350 C   0  0  0  0  0  0  0  0  0  0  0  0
   -4.5958    2.1991    3.6327 C   0  0  0  0  0  0  0  0  0  0  0  0
   -4.2102    1.2422    2.7121 C   0  0  0  0  0  0  0  0  0  0  0  0
   -3.3727    0.2103    3.0936 C   0  0  0  0  0  0  0  0  0  0  0  0
   -2.9099    0.1393    4.3933 C   0  0  0  0  0  0  0  0  0  0  0  0
   -4.7086    1.3207    1.2921 C   0  0  0  0  0  0  0  0  0  0  0  0
   -3.7339    2.1512    0.4547 C   0  0  2  0  0  0  0  0  0  0  0  0
   -3.5943    3.1266    0.9208 H   0  0  0  0  0  0  0  0  0  0  0  0
   -4.2927    2.3331   -0.9330 C   0  0  0  0  0  0  0  0  0  0  0  0
   -3.6775    1.9260   -1.8901 O   0  0  0  0  0  0  0  0  0  0  0  0
   -2.4453    1.4588    0.3755 N   0  0  0  0  0  0  0  0  0  0  0  0
   -1.2822    2.1812    0.1458 C   0  0  0  0  0  0  0  0  0  0  0  0
   -1.3228    3.5685    0.0807 C   0  0  0  0  0  0  0  0  0  0  0  0
   -0.1666    4.2836   -0.1543 C   0  0  0  0  0  0  0  0  0  0  0  0
    1.0436    3.6277   -0.3204 C   0  0  0  0  0  0  0  0  0  0  0  0
    1.1056    2.2537   -0.2536 C   0  0  0  0  0  0  0  0  0  0  0  0
   -0.0570    1.5138   -0.0166 C   0  0  0  0  0  0  0  0  0  0  0  0
    0.0018    0.0432    0.0562 C   0  0  0  0  0  0  0  0  0  0  0  0
    0.4491   -0.4992    1.0488 O   0  0  0  0  0  0  0  0  0  0  0  0
   -0.4820   -0.7715   -1.0750 C   0  0  0  0  0  0  0  0  0  0  0  0
   -0.8962   -0.1523   -2.2582 C   0  0  0  0  0  0  0  0  0  0  0  0
   -1.3415   -0.9164   -3.3132 C   0  0  0  0  0  0  0  0  0  0  0  0
   -1.3909   -2.3012   -3.1991 C   0  0  0  0  0  0  0  0  0  0  0  0
   -0.9854   -2.9206   -2.0223 C   0  0  0  0  0  0  0  0  0  0  0  0
   -0.5329   -2.1643   -0.9647 C   0  0  0  0  0  0  0  0  0  0  0  0
   -1.8358   -3.0504   -4.2394 O   0  0  0  0  0  0  0  0  0  0  0  0
   -2.2369   -2.3498   -5.4186 C   0  0  0  0  0  0  0  0  0  0  0  0
   -2.6975   -3.3388   -6.4582 C   0  0  0  0  0  0  0  0  0  0  0  0
   -1.7929   -3.8625   -7.3628 C   0  0  0  0  0  0  0  0  0  0  0  0
   -2.2144   -4.7737   -8.3130 C   0  0  0  0  0  0  0  0  0  0  0  0
   -3.5427   -5.1529   -8.3657 C   0  0  0  0  0  0  0  0  0  0  0  0
   -4.4484   -4.6248   -7.4648 C   0  0  0  0  0  0  0  0  0  0  0  0
   -4.0258   -3.7180   -6.5109 C   0  0  0  0  0  0  0  0  0  0  0  0
   -3.1275   -1.4237    9.6471 C   0  0  0  0  0  0  0  0  0  0  0  0
   -2.4869   -2.5231    9.3417 N   0  0  0  0  0  0  0  0  0  0  0  0
   -3.1255   -3.5759    9.9225 C   0  0  0  0  0  0  0  0  0  0  0  0
   -2.8946   -4.9521    9.9404 C   0  0  0  0  0  0  0  0  0  0  0  0
   -3.7505   -5.7795   10.6340 C   0  0  0  0  0  0  0  0  0  0  0  0
   -4.8383   -5.2528   11.3132 C   0  0  0  0  0  0  0  0  0  0  0  0
   -5.0780   -3.8934   11.3035 C   0  0  0  0  0  0  0  0  0  0  0  0
   -4.2273   -3.0472   10.6111 C   0  0  0  0  0  0  0  0  0  0  0  0
   -4.1933   -1.7088   10.4157 O   0  0  0  0  0  0  0  0  0  0  0  0
   -4.3459    1.1766    8.8959 H   0  0  0  0  0  0  0  0  0  0  0  0
   -4.0292    0.8021   10.6070 H   0  0  0  0  0  0  0  0  0  0  0  0
   -2.9272    1.8760    9.7122 H   0  0  0  0  0  0  0  0  0  0  0  0
   -0.8497   -0.7514    8.6234 H   0  0  0  0  0  0  0  0  0  0  0  0
   -1.1427    1.0041    8.5990 H   0  0  0  0  0  0  0  0  0  0  0  0
   -2.4955   -1.0035    6.7420 H   0  0  0  0  0  0  0  0  0  0  0  0
   -1.0848   -0.0114    6.3017 H   0  0  0  0  0  0  0  0  0  0  0  0
   -4.4408    2.8776    5.6535 H   0  0  0  0  0  0  0  0  0  0  0  0
   -5.2536    3.0016    3.3334 H   0  0  0  0  0  0  0  0  0  0  0  0
   -3.0767   -0.5385    2.3738 H   0  0  0  0  0  0  0  0  0  0  0  0
   -2.2525   -0.6646    4.6898 H   0  0  0  0  0  0  0  0  0  0  0  0
   -5.6919    1.7907    1.2776 H   0  0  0  0  0  0  0  0  0  0  0  0
   -4.7800    0.3157    0.8760 H   0  0  0  0  0  0  0  0  0  0  0  0
   -2.4048    0.4957    0.4835 H   0  0  0  0  0  0  0  0  0  0  0  0
   -2.2612    4.0874    0.2093 H   0  0  0  0  0  0  0  0  0  0  0  0
   -0.2044    5.3616   -0.2089 H   0  0  0  0  0  0  0  0  0  0  0  0
    1.9426    4.1975   -0.5036 H   0  0  0  0  0  0  0  0  0  0  0  0
    2.0510    1.7481   -0.3838 H   0  0  0  0  0  0  0  0  0  0  0  0
   -0.8627    0.9236   -2.3459 H   0  0  0  0  0  0  0  0  0  0  0  0
   -1.6568   -0.4393   -4.2294 H   0  0  0  0  0  0  0  0  0  0  0  0
   -1.0250   -3.9965   -1.9379 H   0  0  0  0  0  0  0  0  0  0  0  0
   -0.2174   -2.6463   -0.0511 H   0  0  0  0  0  0  0  0  0  0  0  0
   -3.0537   -1.6697   -5.1771 H   0  0  0  0  0  0  0  0  0  0  0  0
   -1.3928   -1.7803   -5.8077 H   0  0  0  0  0  0  0  0  0  0  0  0
   -0.7560   -3.5629   -7.3244 H   0  0  0  0  0  0  0  0  0  0  0  0
   -1.5066   -5.1866   -9.0166 H   0  0  0  0  0  0  0  0  0  0  0  0
   -3.8727   -5.8620   -9.1105 H   0  0  0  0  0  0  0  0  0  0  0  0
   -5.4862   -4.9211   -7.5059 H   0  0  0  0  0  0  0  0  0  0  0  0
   -4.7335   -3.3054   -5.8070 H   0  0  0  0  0  0  0  0  0  0  0  0
   -2.0483   -5.3668    9.4130 H   0  0  0  0  0  0  0  0  0  0  0  0
   -3.5727   -6.8447   10.6489 H   0  0  0  0  0  0  0  0  0  0  0  0
   -5.5029   -5.9106   11.8534 H   0  0  0  0  0  0  0  0  0  0  0  0
   -5.9276   -3.4903   11.8346 H   0  0  0  0  0  0  0  0  0  0  0  0
   -5.4736    2.9472   -1.1059 O   0  5  0  0  0  0  0  0  0  0  0  0
  1  2  1  0  0  0  0
  1 49  1  0  0  0  0
  1 50  1  0  0  0  0
  1 51  1  0  0  0  0
  2  3  1  0  0  0  0
  2 40  1  0  0  0  0
  3  4  1  0  0  0  0
  3 52  1  0  0  0  0
  3 53  1  0  0  0  0
  4  5  1  0  0  0  0
  4 54  1  0  0  0  0
  4 55  1  0  0  0  0
  5  6  1  0  0  0  0
  6 11  2  0  0  0  0
  6  7  1  0  0  0  0
  7  8  2  0  0  0  0
  7 56  1  0  0  0  0
  8  9  1  0  0  0  0
  8 57  1  0  0  0  0
  9 10  2  0  0  0  0
  9 12  1  0  0  0  0
 10 11  1  0  0  0  0
 10 58  1  0  0  0  0
 11 59  1  0  0  0  0
 12 13  1  0  0  0  0
 12 60  1  0  0  0  0
 12 61  1  0  0  0  0
 13 14  1  0  0  0  0
 13 15  1  0  0  0  0
 13 17  1  0  0  0  0
 15 16  2  0  0  0  0
 15 82  1  0  0  0  0
 17 18  1  0  0  0  0
 17 62  1  0  0  0  0
 18 23  2  0  0  0  0
 18 19  1  0  0  0  0
 19 20  2  0  0  0  0
 19 63  1  0  0  0  0
 20 21  1  0  0  0  0
 20 64  1  0  0  0  0
 21 22  2  0  0  0  0
 21 65  1  0  0  0  0
 22 23  1  0  0  0  0
 22 66  1  0  0  0  0
 23 24  1  0  0  0  0
 24 25  2  0  0  0  0
 24 26  1  0  0  0  0
 26 31  2  0  0  0  0
 26 27  1  0  0  0  0
 27 28  2  0  0  0  0
 27 67  1  0  0  0  0
 28 29  1  0  0  0  0
 28 68  1  0  0  0  0
 29 30  2  0  0  0  0
 29 32  1  0  0  0  0
 30 31  1  0  0  0  0
 30 69  1  0  0  0  0
 31 70  1  0  0  0  0
 32 33  1  0  0  0  0
 33 34  1  0  0  0  0
 33 71  1  0  0  0  0
 33 72  1  0  0  0  0
 34 39  2  0  0  0  0
 34 35  1  0  0  0  0
 35 36  2  0  0  0  0
 35 73  1  0  0  0  0
 36 37  1  0  0  0  0
 36 74  1  0  0  0  0
 37 38  2  0  0  0  0
 37 75  1  0  0  0  0
 38 39  1  0  0  0  0
 38 76  1  0  0  0  0
 39 77  1  0  0  0  0
 40 48  1  0  0  0  0
 40 41  2  0  0  0  0
 41 42  1  0  0  0  0
 42 47  2  0  0  0  0
 42 43  1  0  0  0  0
 43 44  2  0  0  0  0
 43 78  1  0  0  0  0
 44 45  1  0  0  0  0
 44 79  1  0  0  0  0
 45 46  2  0  0  0  0
 45 80  1  0  0  0  0
 46 47  1  0  0  0  0
 46 81  1  0  0  0  0
 47 48  1  0  0  0  0
M  CHG  1  82  -1
M  END
$$$$
ZINC04137623
  -OEChem-08230709403D

 63 66  0     1  0  0  0  0  0999 V2000
  -12.9831   12.8273   -2.5436 C   0  0  0  0  0  0  0  0  0  0  0  0
  -11.8957   12.1349   -3.0468 C   0  0  0  0  0  0  0  0  0  0  0  0
  -10.8480   11.7928   -2.2173 C   0  0  0  0  0  0  0  0  0  0  0  0
  -10.8867   12.1464   -0.8669 C   0  0  0  0  0  0  0  0  0  0  0  0
  -11.9898   12.8400   -0.3646 C   0  0  0  0  0  0  0  0  0  0  0  0
  -13.0279   13.1807   -1.2065 C   0  0  0  0  0  0  0  0  0  0  0  0
   -9.7680   11.7828    0.0281 C   0  0  0  0  0  0  0  0  0  0  0  0
   -8.7677   11.2637   -0.4290 O   0  0  0  0  0  0  0  0  0  0  0  0
   -9.8647   12.0491    1.4737 C   0  0  0  0  0  0  0  0  0  0  0  0
   -9.1645   13.1188    2.0407 C   0  0  0  0  0  0  0  0  0  0  0  0
   -9.2556   13.3592    3.3934 C   0  0  0  0  0  0  0  0  0  0  0  0
  -10.0420   12.5487    4.1981 C   0  0  0  0  0  0  0  0  0  0  0  0
  -10.7429   11.4924    3.6539 C   0  0  0  0  0  0  0  0  0  0  0  0
  -10.6647   11.2333    2.2910 C   0  0  0  0  0  0  0  0  0  0  0  0
  -11.3685   10.1708    1.7411 N   0  0  0  0  0  0  0  0  0  0  0  0
  -12.1004    9.2478    2.6121 C   0  0  2  0  0  0  0  0  0  0  0  0
  -11.5521    9.1169    3.5451 H   0  0  0  0  0  0  0  0  0  0  0  0
  -12.2475    7.8950    1.9128 C   0  0  0  0  0  0  0  0  0  0  0  0
  -10.8866    7.2744    1.7281 C   0  0  0  0  0  0  0  0  0  0  0  0
  -10.3649    6.4507    2.7084 C   0  0  0  0  0  0  0  0  0  0  0  0
   -9.1177    5.8806    2.5415 C   0  0  0  0  0  0  0  0  0  0  0  0
   -8.3886    6.1352    1.3890 C   0  0  0  0  0  0  0  0  0  0  0  0
   -8.9119    6.9665    0.4094 C   0  0  0  0  0  0  0  0  0  0  0  0
  -10.1622    7.5293    0.5783 C   0  0  0  0  0  0  0  0  0  0  0  0
   -7.1614    5.5755    1.2224 O   0  0  0  0  0  0  0  0  0  0  0  0
   -6.4678    5.8817    0.0111 C   0  0  0  0  0  0  0  0  0  0  0  0
   -5.1151    5.1667    0.0033 C   0  0  0  0  0  0  0  0  0  0  0  0
   -5.3235    3.7534   -0.0272 O   0  0  0  0  0  0  0  0  0  0  0  0
   -4.2174    2.9677   -0.0378 C   0  0  0  0  0  0  0  0  0  0  0  0
   -4.3554    1.5857   -0.0673 C   0  0  0  0  0  0  0  0  0  0  0  0
   -3.2193    0.7958   -0.0773 C   0  0  0  0  0  0  0  0  0  0  0  0
   -1.9791    1.4193   -0.0573 C   0  0  0  0  0  0  0  0  0  0  0  0
   -1.9168    2.7979   -0.0230 C   0  0  0  0  0  0  0  0  0  0  0  0
   -3.0182    3.5249   -0.0194 N   0  0  0  0  0  0  0  0  0  0  0  0
   -0.7371    0.6144   -0.0665 N   0  3  0  0  0  0  0  0  0  0  0  0
   -0.7996   -0.6017   -0.0918 O   0  0  0  0  0  0  0  0  0  0  0  0
    0.3476    1.1683   -0.0539 O   0  5  0  0  0  0  0  0  0  0  0  0
  -13.4663    9.8120    2.9071 C   0  0  0  0  0  0  0  0  0  0  0  0
  -13.7948   10.8758    2.4379 O   0  0  0  0  0  0  0  0  0  0  0  0
  -13.8007   13.0926   -3.1974 H   0  0  0  0  0  0  0  0  0  0  0  0
  -11.8671   11.8621   -4.0913 H   0  0  0  0  0  0  0  0  0  0  0  0
   -9.9999   11.2525   -2.6113 H   0  0  0  0  0  0  0  0  0  0  0  0
  -12.0279   13.1128    0.6797 H   0  0  0  0  0  0  0  0  0  0  0  0
  -13.8798   13.7207   -0.8202 H   0  0  0  0  0  0  0  0  0  0  0  0
   -8.5504   13.7534    1.4189 H   0  0  0  0  0  0  0  0  0  0  0  0
   -8.7113   14.1834    3.8302 H   0  0  0  0  0  0  0  0  0  0  0  0
  -10.1060   12.7456    5.2581 H   0  0  0  0  0  0  0  0  0  0  0  0
  -11.3533   10.8664    4.2878 H   0  0  0  0  0  0  0  0  0  0  0  0
  -11.3758   10.0394    0.7800 H   0  0  0  0  0  0  0  0  0  0  0  0
  -12.7166    8.0382    0.9394 H   0  0  0  0  0  0  0  0  0  0  0  0
  -12.8673    7.2368    2.5216 H   0  0  0  0  0  0  0  0  0  0  0  0
  -10.9327    6.2532    3.6056 H   0  0  0  0  0  0  0  0  0  0  0  0
   -8.7107    5.2371    3.3074 H   0  0  0  0  0  0  0  0  0  0  0  0
   -8.3443    7.1698   -0.4867 H   0  0  0  0  0  0  0  0  0  0  0  0
  -10.5722    8.1724   -0.1863 H   0  0  0  0  0  0  0  0  0  0  0  0
   -6.3102    6.9582   -0.0552 H   0  0  0  0  0  0  0  0  0  0  0  0
   -7.0600    5.5480   -0.8410 H   0  0  0  0  0  0  0  0  0  0  0  0
   -4.5585    5.4326    0.9020 H   0  0  0  0  0  0  0  0  0  0  0  0
   -4.5491    5.4697   -0.8775 H   0  0  0  0  0  0  0  0  0  0  0  0
   -5.3362    1.1339   -0.0819 H   0  0  0  0  0  0  0  0  0  0  0  0
   -3.2957   -0.2813   -0.0998 H   0  0  0  0  0  0  0  0  0  0  0  0
   -0.9545    3.2878   -0.0028 H   0  0  0  0  0  0  0  0  0  0  0  0
  -14.3180    9.1326    3.6911 O   0  5  0  0  0  0  0  0  0  0  0  0
  1  6  2  0  0  0  0
  1  2  1  0  0  0  0
  1 40  1  0  0  0  0
  2  3  2  0  0  0  0
  2 41  1  0  0  0  0
  3  4  1  0  0  0  0
  3 42  1  0  0  0  0
  4  5  2  0  0  0  0
  4  7  1  0  0  0  0
  5  6  1  0  0  0  0
  5 43  1  0  0  0  0
  6 44  1  0  0  0  0
  7  8  2  0  0  0  0
  7  9  1  0  0  0  0
  9 14  2  0  0  0  0
  9 10  1  0  0  0  0
 10 11  2  0  0  0  0
 10 45  1  0  0  0  0
 11 12  1  0  0  0  0
 11 46  1  0  0  0  0
 12 13  2  0  0  0  0
 12 47  1  0  0  0  0
 13 14  1  0  0  0  0
 13 48  1  0  0  0  0
 14 15  1  0  0  0  0
 15 16  1  0  0  0  0
 15 49  1  0  0  0  0
 16 17  1  0  0  0  0
 16 18  1  0  0  0  0
 16 38  1  0  0  0  0
 18 19  1  0  0  0  0
 18 50  1  0  0  0  0
 18 51  1  0  0  0  0
 19 24  2  0  0  0  0
 19 20  1  0  0  0  0
 20 21  2  0  0  0  0
 20 52  1  0  0  0  0
 21 22  1  0  0  0  0
 21 53  1  0  0  0  0
 22 23  2  0  0  0  0
 22 25  1  0  0  0  0
 23 24  1  0  0  0  0
 23 54  1  0  0  0  0
 24 55  1  0  0  0  0
 25 26  1  0  0  0  0
 26 27  1  0  0  0  0
 26 56  1  0  0  0  0
 26 57  1  0  0  0  0
 27 28  1  0  0  0  0
 27 58  1  0  0  0  0
 27 59  1  0  0  0  0
 28 29  1  0  0  0  0
 29 34  2  0  0  0  0
 29 30  1  0  0  0  0
 30 31  2  0  0  0  0
 30 60  1  0  0  0  0
 31 32  1  0  0  0  0
 31 61  1  0  0  0  0
 32 33  2  0  0  0  0
 32 35  1  0  0  0  0
 33 34  1  0  0  0  0
 33 62  1  0  0  0  0
 35 36  2  0  0  0  0
 35 37  1  0  0  0  0
 38 39  2  0  0  0  0
 38 63  1  0  0  0  0
M  CHG  3  35   1  37  -1  63  -1
M  END
$$$$
ZINC04137624
  -OEChem-08230709403D

 72 75  0     1  0  0  0  0  0999 V2000
    0.1374   13.3735    4.1961 C   0  0  0  0  0  0  0  0  0  0  0  0
   -0.0246   11.8560    4.0869 C   0  0  0  0  0  0  0  0  0  0  0  0
   -0.2152   11.4851    2.6825 N   0  0  3  0  0  0  0  0  0  0  0  0
    0.9446   11.1756    1.8427 C   0  0  0  0  0  0  0  0  0  0  0  0
    1.2527    9.6795    1.9300 C   0  0  0  0  0  0  0  0  0  0  0  0
    0.1695    8.9364    1.3674 O   0  0  0  0  0  0  0  0  0  0  0  0
    0.2850    7.5823    1.3664 C   0  0  0  0  0  0  0  0  0  0  0  0
   -0.7295    6.7988    0.8357 C   0  0  0  0  0  0  0  0  0  0  0  0
   -0.6099    5.4226    0.8363 C   0  0  0  0  0  0  0  0  0  0  0  0
    0.5200    4.8259    1.3647 C   0  0  0  0  0  0  0  0  0  0  0  0
    1.5299    5.6043    1.8992 C   0  0  0  0  0  0  0  0  0  0  0  0
    1.4174    6.9811    1.8964 C   0  0  0  0  0  0  0  0  0  0  0  0
    0.6480    3.3243    1.3635 C   0  0  0  0  0  0  0  0  0  0  0  0
    1.3258    2.8713    0.0688 C   0  0  2  0  0  0  0  0  0  0  0  0
    0.7733    3.2610   -0.7862 H   0  0  0  0  0  0  0  0  0  0  0  0
    1.3435    1.3655    0.0113 C   0  0  0  0  0  0  0  0  0  0  0  0
    2.3962    0.7757   -0.0521 O   0  0  0  0  0  0  0  0  0  0  0  0
    2.7001    3.3775    0.0340 N   0  0  0  0  0  0  0  0  0  0  0  0
    3.3404    3.5642   -1.1834 C   0  0  0  0  0  0  0  0  0  0  0  0
    2.7253    3.1670   -2.3643 C   0  0  0  0  0  0  0  0  0  0  0  0
    3.3636    3.3540   -3.5730 C   0  0  0  0  0  0  0  0  0  0  0  0
    4.6203    3.9380   -3.6210 C   0  0  0  0  0  0  0  0  0  0  0  0
    5.2464    4.3388   -2.4620 C   0  0  0  0  0  0  0  0  0  0  0  0
    4.6113    4.1610   -1.2288 C   0  0  0  0  0  0  0  0  0  0  0  0
    5.2729    4.5921    0.0149 C   0  0  0  0  0  0  0  0  0  0  0  0
    5.3189    5.7730    0.3013 O   0  0  0  0  0  0  0  0  0  0  0  0
    5.8808    3.5892    0.9145 C   0  0  0  0  0  0  0  0  0  0  0  0
    5.9263    2.2452    0.5379 C   0  0  0  0  0  0  0  0  0  0  0  0
    6.4993    1.3153    1.3802 C   0  0  0  0  0  0  0  0  0  0  0  0
    7.0193    1.7100    2.6004 C   0  0  0  0  0  0  0  0  0  0  0  0
    6.9723    3.0392    2.9824 C   0  0  0  0  0  0  0  0  0  0  0  0
    6.4069    3.9804    2.1475 C   0  0  0  0  0  0  0  0  0  0  0  0
   -1.5028   11.4265    2.1442 C   0  0  0  0  0  0  0  0  0  0  0  0
   -1.6850   11.0805    0.8111 C   0  0  0  0  0  0  0  0  0  0  0  0
   -2.9595   11.0194    0.2833 C   0  0  0  0  0  0  0  0  0  0  0  0
   -4.0533   11.3119    1.0776 C   0  0  0  0  0  0  0  0  0  0  0  0
   -3.8752   11.6613    2.4034 C   0  0  0  0  0  0  0  0  0  0  0  0
   -2.6034   11.7197    2.9390 C   0  0  0  0  0  0  0  0  0  0  0  0
   -5.0701   11.9792    3.2650 C   0  0  0  0  0  0  0  0  0  0  0  0
    1.0046   13.6890    3.6160 H   0  0  0  0  0  0  0  0  0  0  0  0
   -0.7563   13.8631    3.8091 H   0  0  0  0  0  0  0  0  0  0  0  0
    0.2793   13.6495    5.2410 H   0  0  0  0  0  0  0  0  0  0  0  0
   -0.8918   11.5405    4.6670 H   0  0  0  0  0  0  0  0  0  0  0  0
    0.8691   11.3665    4.4739 H   0  0  0  0  0  0  0  0  0  0  0  0
    1.8068   11.7450    2.1897 H   0  0  0  0  0  0  0  0  0  0  0  0
    0.7257   11.4417    0.8086 H   0  0  0  0  0  0  0  0  0  0  0  0
    1.3842    9.3959    2.9742 H   0  0  0  0  0  0  0  0  0  0  0  0
    2.1670    9.4639    1.3771 H   0  0  0  0  0  0  0  0  0  0  0  0
   -1.6122    7.2644    0.4229 H   0  0  0  0  0  0  0  0  0  0  0  0
   -1.3994    4.8122    0.4233 H   0  0  0  0  0  0  0  0  0  0  0  0
    2.4093    5.1356    2.3157 H   0  0  0  0  0  0  0  0  0  0  0  0
    2.2088    7.5889    2.3097 H   0  0  0  0  0  0  0  0  0  0  0  0
   -0.3428    2.8751    1.4314 H   0  0  0  0  0  0  0  0  0  0  0  0
    1.2486    3.0102    2.2172 H   0  0  0  0  0  0  0  0  0  0  0  0
    3.1626    3.5823    0.8617 H   0  0  0  0  0  0  0  0  0  0  0  0
    1.7467    2.7110   -2.3360 H   0  0  0  0  0  0  0  0  0  0  0  0
    2.8810    3.0438   -4.4880 H   0  0  0  0  0  0  0  0  0  0  0  0
    5.1107    4.0795   -4.5728 H   0  0  0  0  0  0  0  0  0  0  0  0
    6.2253    4.7931   -2.5056 H   0  0  0  0  0  0  0  0  0  0  0  0
    5.5175    1.9353   -0.4125 H   0  0  0  0  0  0  0  0  0  0  0  0
    6.5386    0.2762    1.0886 H   0  0  0  0  0  0  0  0  0  0  0  0
    7.4634    0.9772    3.2578 H   0  0  0  0  0  0  0  0  0  0  0  0
    7.3796    3.3404    3.9362 H   0  0  0  0  0  0  0  0  0  0  0  0
    6.3709    5.0175    2.4468 H   0  0  0  0  0  0  0  0  0  0  0  0
   -0.8310   10.8563    0.1892 H   0  0  0  0  0  0  0  0  0  0  0  0
   -3.1021   10.7472   -0.7520 H   0  0  0  0  0  0  0  0  0  0  0  0
   -5.0488   11.2677    0.6611 H   0  0  0  0  0  0  0  0  0  0  0  0
   -2.4650   11.9927    3.9748 H   0  0  0  0  0  0  0  0  0  0  0  0
   -5.2898   13.0450    3.2026 H   0  0  0  0  0  0  0  0  0  0  0  0
   -5.9315   11.4096    2.9162 H   0  0  0  0  0  0  0  0  0  0  0  0
   -4.8532   11.7129    4.2995 H   0  0  0  0  0  0  0  0  0  0  0  0
    0.1900    0.6795    0.0307 O   0  5  0  0  0  0  0  0  0  0  0  0
  1  2  1  0  0  0  0
  1 40  1  0  0  0  0
  1 41  1  0  0  0  0
  1 42  1  0  0  0  0
  2  3  1  0  0  0  0
  2 43  1  0  0  0  0
  2 44  1  0  0  0  0
  3  4  1  0  0  0  0
  3 33  1  0  0  0  0
  4  5  1  0  0  0  0
  4 45  1  0  0  0  0
  4 46  1  0  0  0  0
  5  6  1  0  0  0  0
  5 47  1  0  0  0  0
  5 48  1  0  0  0  0
  6  7  1  0  0  0  0
  7 12  2  0  0  0  0
  7  8  1  0  0  0  0
  8  9  2  0  0  0  0
  8 49  1  0  0  0  0
  9 10  1  0  0  0  0
  9 50  1  0  0  0  0
 10 11  2  0  0  0  0
 10 13  1  0  0  0  0
 11 12  1  0  0  0  0
 11 51  1  0  0  0  0
 12 52  1  0  0  0  0
 13 14  1  0  0  0  0
 13 53  1  0  0  0  0
 13 54  1  0  0  0  0
 14 15  1  0  0  0  0
 14 16  1  0  0  0  0
 14 18  1  0  0  0  0
 16 17  2  0  0  0  0
 16 72  1  0  0  0  0
 18 19  1  0  0  0  0
 18 55  1  0  0  0  0
 19 24  2  0  0  0  0
 19 20  1  0  0  0  0
 20 21  2  0  0  0  0
 20 56  1  0  0  0  0
 21 22  1  0  0  0  0
 21 57  1  0  0  0  0
 22 23  2  0  0  0  0
 22 58  1  0  0  0  0
 23 24  1  0  0  0  0
 23 59  1  0  0  0  0
 24 25  1  0  0  0  0
 25 26  2  0  0  0  0
 25 27  1  0  0  0  0
 27 32  2  0  0  0  0
 27 28  1  0  0  0  0
 28 29  2  0  0  0  0
 28 60  1  0  0  0  0
 29 30  1  0  0  0  0
 29 61  1  0  0  0  0
 30 31  2  0  0  0  0
 30 62  1  0  0  0  0
 31 32  1  0  0  0  0
 31 63  1  0  0  0  0
 32 64  1  0  0  0  0
 33 38  2  0  0  0  0
 33 34  1  0  0  0  0
 34 35  2  0  0  0  0
 34 65  1  0  0  0  0
 35 36  1  0  0  0  0
 35 66  1  0  0  0  0
 36 37  2  0  0  0  0
 36 67  1  0  0  0  0
 37 38  1  0  0  0  0
 37 39  1  0  0  0  0
 38 68  1  0  0  0  0
 39 69  1  0  0  0  0
 39 70  1  0  0  0  0
 39 71  1  0  0  0  0
M  CHG  1  72  -1
M  END
$$$$
ZINC04137625
  -OEChem-08230709403D

 72 75  0     1  0  0  0  0  0999 V2000
    1.4037   18.1629    0.9337 C   0  0  0  0  0  0  0  0  0  0  0  0
    0.9730   17.4830    2.1145 O   0  0  0  0  0  0  0  0  0  0  0  0
    1.2457   16.1532    2.1954 C   0  0  0  0  0  0  0  0  0  0  0  0
    1.9128   15.5170    1.1609 C   0  0  0  0  0  0  0  0  0  0  0  0
    2.1939   14.1662    1.2470 C   0  0  0  0  0  0  0  0  0  0  0  0
    1.8008   13.4448    2.3590 C   0  0  0  0  0  0  0  0  0  0  0  0
    1.1350   14.0734    3.3947 C   0  0  0  0  0  0  0  0  0  0  0  0
    0.8551   15.4283    3.3171 C   0  0  0  0  0  0  0  0  0  0  0  0
    0.1998   16.0481    4.3349 O   0  0  0  0  0  0  0  0  0  0  0  0
   -0.1709   15.2412    5.4545 C   0  0  0  0  0  0  0  0  0  0  0  0
    2.1044   11.9712    2.4450 C   0  0  0  0  0  0  0  0  0  0  0  0
    0.9446   11.1756    1.8427 C   0  0  0  0  0  0  0  0  0  0  0  0
    1.2527    9.6795    1.9300 C   0  0  0  0  0  0  0  0  0  0  0  0
    0.1695    8.9364    1.3674 O   0  0  0  0  0  0  0  0  0  0  0  0
    0.2850    7.5823    1.3664 C   0  0  0  0  0  0  0  0  0  0  0  0
   -0.7295    6.7988    0.8357 C   0  0  0  0  0  0  0  0  0  0  0  0
   -0.6099    5.4226    0.8363 C   0  0  0  0  0  0  0  0  0  0  0  0
    0.5200    4.8259    1.3647 C   0  0  0  0  0  0  0  0  0  0  0  0
    1.5299    5.6043    1.8992 C   0  0  0  0  0  0  0  0  0  0  0  0
    1.4174    6.9811    1.8964 C   0  0  0  0  0  0  0  0  0  0  0  0
    0.6480    3.3243    1.3635 C   0  0  0  0  0  0  0  0  0  0  0  0
    1.3258    2.8713    0.0688 C   0  0  2  0  0  0  0  0  0  0  0  0
    0.7733    3.2610   -0.7862 H   0  0  0  0  0  0  0  0  0  0  0  0
    1.3435    1.3655    0.0113 C   0  0  0  0  0  0  0  0  0  0  0  0
    2.3962    0.7757   -0.0521 O   0  0  0  0  0  0  0  0  0  0  0  0
    2.7001    3.3775    0.0340 N   0  0  0  0  0  0  0  0  0  0  0  0
    3.3404    3.5642   -1.1834 C   0  0  0  0  0  0  0  0  0  0  0  0
    2.7253    3.1670   -2.3643 C   0  0  0  0  0  0  0  0  0  0  0  0
    3.3636    3.3540   -3.5730 C   0  0  0  0  0  0  0  0  0  0  0  0
    4.6203    3.9380   -3.6210 C   0  0  0  0  0  0  0  0  0  0  0  0
    5.2464    4.3388   -2.4620 C   0  0  0  0  0  0  0  0  0  0  0  0
    4.6113    4.1610   -1.2288 C   0  0  0  0  0  0  0  0  0  0  0  0
    5.2729    4.5921    0.0149 C   0  0  0  0  0  0  0  0  0  0  0  0
    5.3189    5.7730    0.3013 O   0  0  0  0  0  0  0  0  0  0  0  0
    5.8808    3.5892    0.9145 C   0  0  0  0  0  0  0  0  0  0  0  0
    5.9263    2.2452    0.5379 C   0  0  0  0  0  0  0  0  0  0  0  0
    6.4993    1.3153    1.3802 C   0  0  0  0  0  0  0  0  0  0  0  0
    7.0193    1.7100    2.6004 C   0  0  0  0  0  0  0  0  0  0  0  0
    6.9723    3.0392    2.9824 C   0  0  0  0  0  0  0  0  0  0  0  0
    6.4069    3.9804    2.1475 C   0  0  0  0  0  0  0  0  0  0  0  0
    1.1240   19.2145    0.9975 H   0  0  0  0  0  0  0  0  0  0  0  0
    2.4866   18.0799    0.8412 H   0  0  0  0  0  0  0  0  0  0  0  0
    0.9290   17.7130    0.0617 H   0  0  0  0  0  0  0  0  0  0  0  0
    2.2170   16.0773    0.2891 H   0  0  0  0  0  0  0  0  0  0  0  0
    2.7177   13.6724    0.4420 H   0  0  0  0  0  0  0  0  0  0  0  0
    0.8333   13.5085    4.2643 H   0  0  0  0  0  0  0  0  0  0  0  0
   -0.6851   15.8573    6.1921 H   0  0  0  0  0  0  0  0  0  0  0  0
   -0.8340   14.4421    5.1228 H   0  0  0  0  0  0  0  0  0  0  0  0
    0.7236   14.8085    5.9026 H   0  0  0  0  0  0  0  0  0  0  0  0
    2.2358   11.6876    3.4893 H   0  0  0  0  0  0  0  0  0  0  0  0
    3.0187   11.7556    1.8921 H   0  0  0  0  0  0  0  0  0  0  0  0
    0.8131   11.4591    0.7984 H   0  0  0  0  0  0  0  0  0  0  0  0
    0.0303   11.3911    2.3956 H   0  0  0  0  0  0  0  0  0  0  0  0
    1.3842    9.3959    2.9742 H   0  0  0  0  0  0  0  0  0  0  0  0
    2.1670    9.4639    1.3771 H   0  0  0  0  0  0  0  0  0  0  0  0
   -1.6122    7.2644    0.4229 H   0  0  0  0  0  0  0  0  0  0  0  0
   -1.3994    4.8122    0.4233 H   0  0  0  0  0  0  0  0  0  0  0  0
    2.4093    5.1356    2.3157 H   0  0  0  0  0  0  0  0  0  0  0  0
    2.2088    7.5889    2.3097 H   0  0  0  0  0  0  0  0  0  0  0  0
   -0.3428    2.8751    1.4314 H   0  0  0  0  0  0  0  0  0  0  0  0
    1.2486    3.0102    2.2172 H   0  0  0  0  0  0  0  0  0  0  0  0
    3.1626    3.5823    0.8617 H   0  0  0  0  0  0  0  0  0  0  0  0
    1.7467    2.7110   -2.3360 H   0  0  0  0  0  0  0  0  0  0  0  0
    2.8810    3.0438   -4.4880 H   0  0  0  0  0  0  0  0  0  0  0  0
    5.1107    4.0795   -4.5728 H   0  0  0  0  0  0  0  0  0  0  0  0
    6.2253    4.7931   -2.5056 H   0  0  0  0  0  0  0  0  0  0  0  0
    5.5175    1.9353   -0.4125 H   0  0  0  0  0  0  0  0  0  0  0  0
    6.5386    0.2762    1.0886 H   0  0  0  0  0  0  0  0  0  0  0  0
    7.4634    0.9772    3.2578 H   0  0  0  0  0  0  0  0  0  0  0  0
    7.3796    3.3404    3.9362 H   0  0  0  0  0  0  0  0  0  0  0  0
    6.3709    5.0175    2.4468 H   0  0  0  0  0  0  0  0  0  0  0  0
    0.1900    0.6795    0.0307 O   0  5  0  0  0  0  0  0  0  0  0  0
  1  2  1  0  0  0  0
  1 41  1  0  0  0  0
  1 42  1  0  0  0  0
  1 43  1  0  0  0  0
  2  3  1  0  0  0  0
  3  8  2  0  0  0  0
  3  4  1  0  0  0  0
  4  5  2  0  0  0  0
  4 44  1  0  0  0  0
  5  6  1  0  0  0  0
  5 45  1  0  0  0  0
  6  7  2  0  0  0  0
  6 11  1  0  0  0  0
  7  8  1  0  0  0  0
  7 46  1  0  0  0  0
  8  9  1  0  0  0  0
  9 10  1  0  0  0  0
 10 47  1  0  0  0  0
 10 48  1  0  0  0  0
 10 49  1  0  0  0  0
 11 12  1  0  0  0  0
 11 50  1  0  0  0  0
 11 51  1  0  0  0  0
 12 13  1  0  0  0  0
 12 52  1  0  0  0  0
 12 53  1  0  0  0  0
 13 14  1  0  0  0  0
 13 54  1  0  0  0  0
 13 55  1  0  0  0  0
 14 15  1  0  0  0  0
 15 20  2  0  0  0  0
 15 16  1  0  0  0  0
 16 17  2  0  0  0  0
 16 56  1  0  0  0  0
 17 18  1  0  0  0  0
 17 57  1  0  0  0  0
 18 19  2  0  0  0  0
 18 21  1  0  0  0  0
 19 20  1  0  0  0  0
 19 58  1  0  0  0  0
 20 59  1  0  0  0  0
 21 22  1  0  0  0  0
 21 60  1  0  0  0  0
 21 61  1  0  0  0  0
 22 23  1  0  0  0  0
 22 24  1  0  0  0  0
 22 26  1  0  0  0  0
 24 25  2  0  0  0  0
 24 72  1  0  0  0  0
 26 27  1  0  0  0  0
 26 62  1  0  0  0  0
 27 32  2  0  0  0  0
 27 28  1  0  0  0  0
 28 29  2  0  0  0  0
 28 63  1  0  0  0  0
 29 30  1  0  0  0  0
 29 64  1  0  0  0  0
 30 31  2  0  0  0  0
 30 65  1  0  0  0  0
 31 32  1  0  0  0  0
 31 66  1  0  0  0  0
 32 33  1  0  0  0  0
 33 34  2  0  0  0  0
 33 35  1  0  0  0  0
 35 40  2  0  0  0  0
 35 36  1  0  0  0  0
 36 37  2  0  0  0  0
 36 67  1  0  0  0  0
 37 38  1  0  0  0  0
 37 68  1  0  0  0  0
 38 39  2  0  0  0  0
 38 69  1  0  0  0  0
 39 40  1  0  0  0  0
 39 70  1  0  0  0  0
 40 71  1  0  0  0  0
M  CHG  1  72  -1
M  END
$$$$
ZINC04617933
  -OEChem-08230709403D

 71 75  0     1  0  0  0  0  0999 V2000
   -1.1622    4.6598    0.0586 C   0  0  0  0  0  0  0  0  0  0  0  0
   -0.2208    3.4844    0.1145 C   0  0  0  0  0  0  0  0  0  0  0  0
    1.1237    3.5533    0.1943 C   0  0  0  0  0  0  0  0  0  0  0  0
    1.5901    2.2667    0.2221 N   0  0  0  0  0  0  0  0  0  0  0  0
    2.5470    1.9821    0.2789 H   0  0  0  0  0  0  0  0  0  0  0  0
    0.5021    1.4464    0.1576 C   0  0  0  0  0  0  0  0  0  0  0  0
   -0.5762    2.1948    0.0878 N   0  0  0  0  0  0  0  0  0  0  0  0
    0.5312   -0.0325    0.1594 C   0  0  0  0  0  0  0  0  0  0  0  0
    1.7496   -0.7091    0.2259 C   0  0  0  0  0  0  0  0  0  0  0  0
    1.7696   -2.0887    0.2326 C   0  0  0  0  0  0  0  0  0  0  0  0
    0.5857   -2.8010    0.1619 C   0  0  0  0  0  0  0  0  0  0  0  0
   -0.6254   -2.1360    0.0904 C   0  0  0  0  0  0  0  0  0  0  0  0
   -0.6594   -0.7567    0.0888 C   0  0  0  0  0  0  0  0  0  0  0  0
    1.9553    4.8092    0.2431 C   0  0  0  0  0  0  0  0  0  0  0  0
    2.0469    5.3043    1.6879 C   0  0  0  0  0  0  0  0  0  0  0  0
    2.8355    6.4952    1.7342 O   0  0  0  0  0  0  0  0  0  0  0  0
    3.0166    7.0682    2.9531 C   0  0  0  0  0  0  0  0  0  0  0  0
    2.4425    6.4992    4.0806 C   0  0  0  0  0  0  0  0  0  0  0  0
    2.6325    7.0806    5.3193 C   0  0  0  0  0  0  0  0  0  0  0  0
    3.3855    8.2346    5.4344 C   0  0  0  0  0  0  0  0  0  0  0  0
    3.9540    8.8068    4.3114 C   0  0  0  0  0  0  0  0  0  0  0  0
    3.7713    8.2263    3.0712 C   0  0  0  0  0  0  0  0  0  0  0  0
    3.5864    8.8699    6.7860 C   0  0  0  0  0  0  0  0  0  0  0  0
    2.4665    9.8792    7.0467 C   0  0  2  0  0  0  0  0  0  0  0  0
    2.4287   10.5993    6.2293 H   0  0  0  0  0  0  0  0  0  0  0  0
    2.7335   10.6026    8.3414 C   0  0  0  0  0  0  0  0  0  0  0  0
    1.9355   10.5364    9.2462 O   0  0  0  0  0  0  0  0  0  0  0  0
    1.1852    9.1745    7.1363 N   0  0  0  0  0  0  0  0  0  0  0  0
    0.0033    9.8444    6.8515 C   0  0  0  0  0  0  0  0  0  0  0  0
    0.0189   11.2095    6.5927 C   0  0  0  0  0  0  0  0  0  0  0  0
   -1.1563   11.8719    6.3042 C   0  0  0  0  0  0  0  0  0  0  0  0
   -2.3617   11.1867    6.2811 C   0  0  0  0  0  0  0  0  0  0  0  0
   -2.3990    9.8350    6.5404 C   0  0  0  0  0  0  0  0  0  0  0  0
   -1.2160    9.1471    6.8289 C   0  0  0  0  0  0  0  0  0  0  0  0
   -1.2484    7.7010    7.1078 C   0  0  0  0  0  0  0  0  0  0  0  0
   -1.3902    6.9089    6.1960 O   0  0  0  0  0  0  0  0  0  0  0  0
   -1.1085    7.2127    8.4959 C   0  0  0  0  0  0  0  0  0  0  0  0
   -1.0540    8.1197    9.5563 C   0  0  0  0  0  0  0  0  0  0  0  0
   -0.9292    7.6569   10.8497 C   0  0  0  0  0  0  0  0  0  0  0  0
   -0.8464    6.2978   11.0966 C   0  0  0  0  0  0  0  0  0  0  0  0
   -0.8939    5.3938   10.0500 C   0  0  0  0  0  0  0  0  0  0  0  0
   -1.0243    5.8425    8.7523 C   0  0  0  0  0  0  0  0  0  0  0  0
   -1.3283    4.9432   -0.9807 H   0  0  0  0  0  0  0  0  0  0  0  0
   -2.1125    4.3863    0.5170 H   0  0  0  0  0  0  0  0  0  0  0  0
   -0.7266    5.5002    0.5991 H   0  0  0  0  0  0  0  0  0  0  0  0
    2.6748   -0.1542    0.2763 H   0  0  0  0  0  0  0  0  0  0  0  0
    2.7118   -2.6137    0.2881 H   0  0  0  0  0  0  0  0  0  0  0  0
    0.6070   -3.8808    0.1629 H   0  0  0  0  0  0  0  0  0  0  0  0
   -1.5462   -2.6978    0.0355 H   0  0  0  0  0  0  0  0  0  0  0  0
   -1.6055   -0.2388    0.0333 H   0  0  0  0  0  0  0  0  0  0  0  0
    2.9563    4.5970   -0.1324 H   0  0  0  0  0  0  0  0  0  0  0  0
    1.4904    5.5770   -0.3753 H   0  0  0  0  0  0  0  0  0  0  0  0
    1.0459    5.5165    2.0635 H   0  0  0  0  0  0  0  0  0  0  0  0
    2.5118    4.5365    2.3063 H   0  0  0  0  0  0  0  0  0  0  0  0
    1.8508    5.6002    3.9906 H   0  0  0  0  0  0  0  0  0  0  0  0
    2.1895    6.6356    6.1979 H   0  0  0  0  0  0  0  0  0  0  0  0
    4.5418    9.7081    4.4039 H   0  0  0  0  0  0  0  0  0  0  0  0
    4.2153    8.6738    2.1943 H   0  0  0  0  0  0  0  0  0  0  0  0
    3.5674    8.0990    7.5563 H   0  0  0  0  0  0  0  0  0  0  0  0
    4.5487    9.3814    6.8076 H   0  0  0  0  0  0  0  0  0  0  0  0
    1.1628    8.2399    7.3947 H   0  0  0  0  0  0  0  0  0  0  0  0
    0.9527   11.7518    6.6130 H   0  0  0  0  0  0  0  0  0  0  0  0
   -1.1381   12.9321    6.0991 H   0  0  0  0  0  0  0  0  0  0  0  0
   -3.2762   11.7163    6.0588 H   0  0  0  0  0  0  0  0  0  0  0  0
   -3.3407    9.3065    6.5206 H   0  0  0  0  0  0  0  0  0  0  0  0
   -1.1137    9.1808    9.3645 H   0  0  0  0  0  0  0  0  0  0  0  0
   -0.8911    8.3570   11.6711 H   0  0  0  0  0  0  0  0  0  0  0  0
   -0.7438    5.9410   12.1108 H   0  0  0  0  0  0  0  0  0  0  0  0
   -0.8291    4.3344   10.2498 H   0  0  0  0  0  0  0  0  0  0  0  0
   -1.0610    5.1359    7.9363 H   0  0  0  0  0  0  0  0  0  0  0  0
    3.8580   11.3206    8.4895 O   0  5  0  0  0  0  0  0  0  0  0  0
  1  2  1  0  0  0  0
  1 43  1  0  0  0  0
  1 44  1  0  0  0  0
  1 45  1  0  0  0  0
  2  7  1  0  0  0  0
  2  3  2  0  0  0  0
  3  4  1  0  0  0  0
  3 14  1  0  0  0  0
  4  5  1  0  0  0  0
  4  6  1  0  0  0  0
  6  7  2  0  0  0  0
  6  8  1  0  0  0  0
  8 13  2  0  0  0  0
  8  9  1  0  0  0  0
  9 10  2  0  0  0  0
  9 46  1  0  0  0  0
 10 11  1  0  0  0  0
 10 47  1  0  0  0  0
 11 12  2  0  0  0  0
 11 48  1  0  0  0  0
 12 13  1  0  0  0  0
 12 49  1  0  0  0  0
 13 50  1  0  0  0  0
 14 15  1  0  0  0  0
 14 51  1  0  0  0  0
 14 52  1  0  0  0  0
 15 16  1  0  0  0  0
 15 53  1  0  0  0  0
 15 54  1  0  0  0  0
 16 17  1  0  0  0  0
 17 22  2  0  0  0  0
 17 18  1  0  0  0  0
 18 19  2  0  0  0  0
 18 55  1  0  0  0  0
 19 20  1  0  0  0  0
 19 56  1  0  0  0  0
 20 21  2  0  0  0  0
 20 23  1  0  0  0  0
 21 22  1  0  0  0  0
 21 57  1  0  0  0  0
 22 58  1  0  0  0  0
 23 24  1  0  0  0  0
 23 59  1  0  0  0  0
 23 60  1  0  0  0  0
 24 25  1  0  0  0  0
 24 26  1  0  0  0  0
 24 28  1  0  0  0  0
 26 27  2  0  0  0  0
 26 71  1  0  0  0  0
 28 29  1  0  0  0  0
 28 61  1  0  0  0  0
 29 34  2  0  0  0  0
 29 30  1  0  0  0  0
 30 31  2  0  0  0  0
 30 62  1  0  0  0  0
 31 32  1  0  0  0  0
 31 63  1  0  0  0  0
 32 33  2  0  0  0  0
 32 64  1  0  0  0  0
 33 34  1  0  0  0  0
 33 65  1  0  0  0  0
 34 35  1  0  0  0  0
 35 36  2  0  0  0  0
 35 37  1  0  0  0  0
 37 42  2  0  0  0  0
 37 38  1  0  0  0  0
 38 39  2  0  0  0  0
 38 66  1  0  0  0  0
 39 40  1  0  0  0  0
 39 67  1  0  0  0  0
 40 41  2  0  0  0  0
 40 68  1  0  0  0  0
 41 42  1  0  0  0  0
 41 69  1  0  0  0  0
 42 70  1  0  0  0  0
M  CHG  1  71  -1
M  END
$$$$
ZINC04617933
  -OEChem-08230709403D

 71 75  0     1  0  0  0  0  0999 V2000
   -1.1622    4.6598    0.0586 C   0  0  0  0  0  0  0  0  0  0  0  0
   -0.2208    3.4844    0.1145 C   0  0  0  0  0  0  0  0  0  0  0  0
    1.1237    3.5533    0.1943 C   0  0  0  0  0  0  0  0  0  0  0  0
    1.5901    2.2667    0.2221 N   0  0  0  0  0  0  0  0  0  0  0  0
    2.5470    1.9821    0.2789 H   0  0  0  0  0  0  0  0  0  0  0  0
    0.5021    1.4464    0.1576 C   0  0  0  0  0  0  0  0  0  0  0  0
   -0.5762    2.1948    0.0878 N   0  0  0  0  0  0  0  0  0  0  0  0
    0.5312   -0.0325    0.1594 C   0  0  0  0  0  0  0  0  0  0  0  0
    1.7496   -0.7091    0.2259 C   0  0  0  0  0  0  0  0  0  0  0  0
    1.7696   -2.0887    0.2326 C   0  0  0  0  0  0  0  0  0  0  0  0
    0.5857   -2.8010    0.1619 C   0  0  0  0  0  0  0  0  0  0  0  0
   -0.6254   -2.1360    0.0904 C   0  0  0  0  0  0  0  0  0  0  0  0
   -0.6594   -0.7567    0.0888 C   0  0  0  0  0  0  0  0  0  0  0  0
    1.9553    4.8092    0.2431 C   0  0  0  0  0  0  0  0  0  0  0  0
    2.0469    5.3043    1.6879 C   0  0  0  0  0  0  0  0  0  0  0  0
    2.8355    6.4952    1.7342 O   0  0  0  0  0  0  0  0  0  0  0  0
    3.0166    7.0682    2.9531 C   0  0  0  0  0  0  0  0  0  0  0  0
    2.4425    6.4992    4.0806 C   0  0  0  0  0  0  0  0  0  0  0  0
    2.6325    7.0806    5.3193 C   0  0  0  0  0  0  0  0  0  0  0  0
    3.3855    8.2346    5.4344 C   0  0  0  0  0  0  0  0  0  0  0  0
    3.9540    8.8068    4.3114 C   0  0  0  0  0  0  0  0  0  0  0  0
    3.7713    8.2263    3.0712 C   0  0  0  0  0  0  0  0  0  0  0  0
    3.5864    8.8699    6.7860 C   0  0  0  0  0  0  0  0  0  0  0  0
    2.4665    9.8792    7.0467 C   0  0  2  0  0  0  0  0  0  0  0  0
    2.4287   10.5993    6.2293 H   0  0  0  0  0  0  0  0  0  0  0  0
    2.7335   10.6026    8.3414 C   0  0  0  0  0  0  0  0  0  0  0  0
    1.9355   10.5364    9.2462 O   0  0  0  0  0  0  0  0  0  0  0  0
    1.1852    9.1745    7.1363 N   0  0  0  0  0  0  0  0  0  0  0  0
    0.0033    9.8444    6.8515 C   0  0  0  0  0  0  0  0  0  0  0  0
    0.0189   11.2095    6.5927 C   0  0  0  0  0  0  0  0  0  0  0  0
   -1.1563   11.8719    6.3042 C   0  0  0  0  0  0  0  0  0  0  0  0
   -2.3617   11.1867    6.2811 C   0  0  0  0  0  0  0  0  0  0  0  0
   -2.3990    9.8350    6.5404 C   0  0  0  0  0  0  0  0  0  0  0  0
   -1.2160    9.1471    6.8289 C   0  0  0  0  0  0  0  0  0  0  0  0
   -1.2484    7.7010    7.1078 C   0  0  0  0  0  0  0  0  0  0  0  0
   -1.3902    6.9089    6.1960 O   0  0  0  0  0  0  0  0  0  0  0  0
   -1.1085    7.2127    8.4959 C   0  0  0  0  0  0  0  0  0  0  0  0
   -1.0540    8.1197    9.5563 C   0  0  0  0  0  0  0  0  0  0  0  0
   -0.9292    7.6569   10.8497 C   0  0  0  0  0  0  0  0  0  0  0  0
   -0.8464    6.2978   11.0966 C   0  0  0  0  0  0  0  0  0  0  0  0
   -0.8939    5.3938   10.0500 C   0  0  0  0  0  0  0  0  0  0  0  0
   -1.0243    5.8425    8.7523 C   0  0  0  0  0  0  0  0  0  0  0  0
   -1.3283    4.9432   -0.9807 H   0  0  0  0  0  0  0  0  0  0  0  0
   -2.1125    4.3863    0.5170 H   0  0  0  0  0  0  0  0  0  0  0  0
   -0.7266    5.5002    0.5991 H   0  0  0  0  0  0  0  0  0  0  0  0
    2.6748   -0.1542    0.2763 H   0  0  0  0  0  0  0  0  0  0  0  0
    2.7118   -2.6137    0.2881 H   0  0  0  0  0  0  0  0  0  0  0  0
    0.6070   -3.8808    0.1629 H   0  0  0  0  0  0  0  0  0  0  0  0
   -1.5462   -2.6978    0.0355 H   0  0  0  0  0  0  0  0  0  0  0  0
   -1.6055   -0.2388    0.0333 H   0  0  0  0  0  0  0  0  0  0  0  0
    2.9563    4.5970   -0.1324 H   0  0  0  0  0  0  0  0  0  0  0  0
    1.4904    5.5770   -0.3753 H   0  0  0  0  0  0  0  0  0  0  0  0
    1.0459    5.5165    2.0635 H   0  0  0  0  0  0  0  0  0  0  0  0
    2.5118    4.5365    2.3063 H   0  0  0  0  0  0  0  0  0  0  0  0
    1.8508    5.6002    3.9906 H   0  0  0  0  0  0  0  0  0  0  0  0
    2.1895    6.6356    6.1979 H   0  0  0  0  0  0  0  0  0  0  0  0
    4.5418    9.7081    4.4039 H   0  0  0  0  0  0  0  0  0  0  0  0
    4.2153    8.6738    2.1943 H   0  0  0  0  0  0  0  0  0  0  0  0
    3.5674    8.0990    7.5563 H   0  0  0  0  0  0  0  0  0  0  0  0
    4.5487    9.3814    6.8076 H   0  0  0  0  0  0  0  0  0  0  0  0
    1.1628    8.2399    7.3947 H   0  0  0  0  0  0  0  0  0  0  0  0
    0.9527   11.7518    6.6130 H   0  0  0  0  0  0  0  0  0  0  0  0
   -1.1381   12.9321    6.0991 H   0  0  0  0  0  0  0  0  0  0  0  0
   -3.2762   11.7163    6.0588 H   0  0  0  0  0  0  0  0  0  0  0  0
   -3.3407    9.3065    6.5206 H   0  0  0  0  0  0  0  0  0  0  0  0
   -1.1137    9.1808    9.3645 H   0  0  0  0  0  0  0  0  0  0  0  0
   -0.8911    8.3570   11.6711 H   0  0  0  0  0  0  0  0  0  0  0  0
   -0.7438    5.9410   12.1108 H   0  0  0  0  0  0  0  0  0  0  0  0
   -0.8291    4.3344   10.2498 H   0  0  0  0  0  0  0  0  0  0  0  0
   -1.0610    5.1359    7.9363 H   0  0  0  0  0  0  0  0  0  0  0  0
    3.8580   11.3206    8.4895 O   0  5  0  0  0  0  0  0  0  0  0  0
  1  2  1  0  0  0  0
  1 43  1  0  0  0  0
  1 44  1  0  0  0  0
  1 45  1  0  0  0  0
  2  7  1  0  0  0  0
  2  3  2  0  0  0  0
  3  4  1  0  0  0  0
  3 14  1  0  0  0  0
  4  5  1  0  0  0  0
  4  6  1  0  0  0  0
  6  7  2  0  0  0  0
  6  8  1  0  0  0  0
  8 13  2  0  0  0  0
  8  9  1  0  0  0  0
  9 10  2  0  0  0  0
  9 46  1  0  0  0  0
 10 11  1  0  0  0  0
 10 47  1  0  0  0  0
 11 12  2  0  0  0  0
 11 48  1  0  0  0  0
 12 13  1  0  0  0  0
 12 49  1  0  0  0  0
 13 50  1  0  0  0  0
 14 15  1  0  0  0  0
 14 51  1  0  0  0  0
 14 52  1  0  0  0  0
 15 16  1  0  0  0  0
 15 53  1  0  0  0  0
 15 54  1  0  0  0  0
 16 17  1  0  0  0  0
 17 22  2  0  0  0  0
 17 18  1  0  0  0  0
 18 19  2  0  0  0  0
 18 55  1  0  0  0  0
 19 20  1  0  0  0  0
 19 56  1  0  0  0  0
 20 21  2  0  0  0  0
 20 23  1  0  0  0  0
 21 22  1  0  0  0  0
 21 57  1  0  0  0  0
 22 58  1  0  0  0  0
 23 24  1  0  0  0  0
 23 59  1  0  0  0  0
 23 60  1  0  0  0  0
 24 25  1  0  0  0  0
 24 26  1  0  0  0  0
 24 28  1  0  0  0  0
 26 27  2  0  0  0  0
 26 71  1  0  0  0  0
 28 29  1  0  0  0  0
 28 61  1  0  0  0  0
 29 34  2  0  0  0  0
 29 30  1  0  0  0  0
 30 31  2  0  0  0  0
 30 62  1  0  0  0  0
 31 32  1  0  0  0  0
 31 63  1  0  0  0  0
 32 33  2  0  0  0  0
 32 64  1  0  0  0  0
 33 34  1  0  0  0  0
 33 65  1  0  0  0  0
 34 35  1  0  0  0  0
 35 36  2  0  0  0  0
 35 37  1  0  0  0  0
 37 42  2  0  0  0  0
 37 38  1  0  0  0  0
 38 39  2  0  0  0  0
 38 66  1  0  0  0  0
 39 40  1  0  0  0  0
 39 67  1  0  0  0  0
 40 41  2  0  0  0  0
 40 68  1  0  0  0  0
 41 42  1  0  0  0  0
 41 69  1  0  0  0  0
 42 70  1  0  0  0  0
M  CHG  1  71  -1
M  END
$$$$
ZINC04617934
  -OEChem-08230709403D

 55 57  0     1  0  0  0  0  0999 V2000
   -2.5022    1.4159   -0.3417 C   0  0  0  0  0  0  0  0  0  0  0  0
   -1.2639    2.2104   -0.0153 C   0  0  0  0  0  0  0  0  0  0  0  0
   -1.3210    3.5604    0.0368 C   0  0  0  0  0  0  0  0  0  0  0  0
   -2.5664    4.2187   -0.0610 C   0  0  0  0  0  0  0  0  0  0  0  0
   -3.5977    3.5709   -0.0830 O   0  0  0  0  0  0  0  0  0  0  0  0
   -2.6186    5.6960   -0.1368 C   0  0  0  0  0  0  0  0  0  0  0  0
   -1.4393    6.4414   -0.1060 C   0  0  0  0  0  0  0  0  0  0  0  0
   -1.4946    7.8178   -0.1818 C   0  0  0  0  0  0  0  0  0  0  0  0
   -2.7165    8.4598   -0.2775 C   0  0  0  0  0  0  0  0  0  0  0  0
   -3.8897    7.7268   -0.3032 C   0  0  0  0  0  0  0  0  0  0  0  0
   -3.8478    6.3496   -0.2334 C   0  0  0  0  0  0  0  0  0  0  0  0
   -0.0848    1.5673    0.2277 N   0  0  0  0  0  0  0  0  0  0  0  0
   -0.0230    0.1046    0.1712 C   0  0  1  0  0  0  0  0  0  0  0  0
   -0.6972   -0.2579   -0.6047 H   0  0  0  0  0  0  0  0  0  0  0  0
    1.4073   -0.3333   -0.1505 C   0  0  0  0  0  0  0  0  0  0  0  0
    1.7768    0.1351   -1.5344 C   0  0  0  0  0  0  0  0  0  0  0  0
    1.5340   -0.6782   -2.6260 C   0  0  0  0  0  0  0  0  0  0  0  0
    1.8666   -0.2488   -3.8962 C   0  0  0  0  0  0  0  0  0  0  0  0
    2.4550    0.9948   -4.0749 C   0  0  0  0  0  0  0  0  0  0  0  0
    2.7027    1.8066   -2.9774 C   0  0  0  0  0  0  0  0  0  0  0  0
    2.3630    1.3749   -1.7099 C   0  0  0  0  0  0  0  0  0  0  0  0
    2.7877    1.4174   -5.3229 O   0  0  0  0  0  0  0  0  0  0  0  0
    2.5036    0.5293   -6.4058 C   0  0  0  0  0  0  0  0  0  0  0  0
    2.9381    1.1629   -7.7022 C   0  0  0  0  0  0  0  0  0  0  0  0
    2.0522    1.9435   -8.4211 C   0  0  0  0  0  0  0  0  0  0  0  0
    2.4524    2.5289   -9.6077 C   0  0  0  0  0  0  0  0  0  0  0  0
    3.7351    2.3248  -10.0810 C   0  0  0  0  0  0  0  0  0  0  0  0
    4.6192    1.5396   -9.3650 C   0  0  0  0  0  0  0  0  0  0  0  0
    4.2207    0.9587   -8.1755 C   0  0  0  0  0  0  0  0  0  0  0  0
   -0.4359   -0.4674    1.5029 C   0  0  0  0  0  0  0  0  0  0  0  0
   -0.7496    0.2709    2.4064 O   0  0  0  0  0  0  0  0  0  0  0  0
   -3.0351    1.2718    0.4921 H   0  0  0  0  0  0  0  0  0  0  0  0
   -3.1039    1.9628   -1.0676 H   0  0  0  0  0  0  0  0  0  0  0  0
   -2.2151    0.4515   -0.7607 H   0  0  0  0  0  0  0  0  0  0  0  0
   -0.4141    4.1352    0.1531 H   0  0  0  0  0  0  0  0  0  0  0  0
   -0.4852    5.9416   -0.0272 H   0  0  0  0  0  0  0  0  0  0  0  0
   -0.5824    8.3956   -0.1619 H   0  0  0  0  0  0  0  0  0  0  0  0
   -2.7547    9.5378   -0.3321 H   0  0  0  0  0  0  0  0  0  0  0  0
   -4.8404    8.2339   -0.3777 H   0  0  0  0  0  0  0  0  0  0  0  0
   -4.7643    5.7786   -0.2532 H   0  0  0  0  0  0  0  0  0  0  0  0
   -1.1218    3.3649    0.9971 H   0  0  0  0  0  0  0  0  0  0  0  0
    2.0930    0.1030    0.5758 H   0  0  0  0  0  0  0  0  0  0  0  0
    1.4733   -1.4204   -0.1052 H   0  0  0  0  0  0  0  0  0  0  0  0
    1.0800   -1.6480   -2.4859 H   0  0  0  0  0  0  0  0  0  0  0  0
    1.6727   -0.8825   -4.7490 H   0  0  0  0  0  0  0  0  0  0  0  0
    3.1603    2.7752   -3.1140 H   0  0  0  0  0  0  0  0  0  0  0  0
    2.5553    2.0066   -0.8552 H   0  0  0  0  0  0  0  0  0  0  0  0
    3.0434   -0.4063   -6.2597 H   0  0  0  0  0  0  0  0  0  0  0  0
    1.4326    0.3293   -6.4401 H   0  0  0  0  0  0  0  0  0  0  0  0
    1.0487    2.0994   -8.0537 H   0  0  0  0  0  0  0  0  0  0  0  0
    1.7618    3.1428  -10.1669 H   0  0  0  0  0  0  0  0  0  0  0  0
    4.0467    2.7791  -11.0099 H   0  0  0  0  0  0  0  0  0  0  0  0
    5.6213    1.3801   -9.7347 H   0  0  0  0  0  0  0  0  0  0  0  0
    4.9115    0.3452   -7.6161 H   0  0  0  0  0  0  0  0  0  0  0  0
   -0.4551   -1.7971    1.6852 O   0  5  0  0  0  0  0  0  0  0  0  0
  1 33  1  0  0  0  0
  1 34  1  0  0  0  0
  1  2  1  0  0  0  0
  1 32  1  0  0  0  0
  2  3  1  0  0  0  0
  2 12  2  0  0  0  0
  3  4  1  0  0  0  0
  3 35  1  0  0  0  0
  3 41  1  0  0  0  0
  4  5  2  0  0  0  0
  4  6  1  0  0  0  0
  6 11  2  0  0  0  0
  6  7  1  0  0  0  0
  7  8  2  0  0  0  0
  7 36  1  0  0  0  0
  8  9  1  0  0  0  0
  8 37  1  0  0  0  0
  9 10  2  0  0  0  0
  9 38  1  0  0  0  0
 10 11  1  0  0  0  0
 10 39  1  0  0  0  0
 11 40  1  0  0  0  0
 12 13  1  0  0  0  0
 13 14  1  0  0  0  0
 13 15  1  0  0  0  0
 13 30  1  0  0  0  0
 15 16  1  0  0  0  0
 15 42  1  0  0  0  0
 15 43  1  0  0  0  0
 16 21  2  0  0  0  0
 16 17  1  0  0  0  0
 17 18  2  0  0  0  0
 17 44  1  0  0  0  0
 18 19  1  0  0  0  0
 18 45  1  0  0  0  0
 19 20  2  0  0  0  0
 19 22  1  0  0  0  0
 20 21  1  0  0  0  0
 20 46  1  0  0  0  0
 21 47  1  0  0  0  0
 22 23  1  0  0  0  0
 23 24  1  0  0  0  0
 23 48  1  0  0  0  0
 23 49  1  0  0  0  0
 24 29  2  0  0  0  0
 24 25  1  0  0  0  0
 25 26  2  0  0  0  0
 25 50  1  0  0  0  0
 26 27  1  0  0  0  0
 26 51  1  0  0  0  0
 27 28  2  0  0  0  0
 27 52  1  0  0  0  0
 28 29  1  0  0  0  0
 28 53  1  0  0  0  0
 29 54  1  0  0  0  0
 30 31  2  0  0  0  0
 30 55  1  0  0  0  0
M  CHG  1  55  -1
M  END
$$$$
ZINC04617934
  -OEChem-08230709403D

 56 58  0     1  0  0  0  0  0999 V2000
   -2.4580    2.1594   -0.2954 C   0  0  0  0  0  0  0  0  0  0  0  0
   -1.0446    2.5500    0.0522 C   0  0  0  0  0  0  0  0  0  0  0  0
   -0.7185    3.8550    0.1912 C   0  0  0  0  0  0  0  0  0  0  0  0
   -1.7282    4.8418    0.1641 C   0  0  0  0  0  0  0  0  0  0  0  0
   -2.9004    4.5129    0.1248 O   0  0  0  0  0  0  0  0  0  0  0  0
   -1.3621    6.2758    0.1834 C   0  0  0  0  0  0  0  0  0  0  0  0
   -0.0204    6.6559    0.2343 C   0  0  0  0  0  0  0  0  0  0  0  0
    0.3143    7.9943    0.2473 C   0  0  0  0  0  0  0  0  0  0  0  0
   -0.6775    8.9587    0.2208 C   0  0  0  0  0  0  0  0  0  0  0  0
   -2.0098    8.5884    0.1756 C   0  0  0  0  0  0  0  0  0  0  0  0
   -2.3576    7.2535    0.1569 C   0  0  0  0  0  0  0  0  0  0  0  0
   -0.3234    0.1393    0.1030 C   0  0  1  0  0  0  0  0  0  0  0  0
   -1.0603   -0.0444   -0.6788 H   0  0  0  0  0  0  0  0  0  0  0  0
    0.9890   -0.5591   -0.2587 C   0  0  0  0  0  0  0  0  0  0  0  0
    1.4377   -0.1087   -1.6251 C   0  0  0  0  0  0  0  0  0  0  0  0
    1.0319   -0.8047   -2.7489 C   0  0  0  0  0  0  0  0  0  0  0  0
    1.4372   -0.3905   -4.0029 C   0  0  0  0  0  0  0  0  0  0  0  0
    2.2612    0.7180   -4.1334 C   0  0  0  0  0  0  0  0  0  0  0  0
    2.6715    1.4112   -3.0038 C   0  0  0  0  0  0  0  0  0  0  0  0
    2.2588    0.9963   -1.7525 C   0  0  0  0  0  0  0  0  0  0  0  0
    2.6654    1.1244   -5.3655 O   0  0  0  0  0  0  0  0  0  0  0  0
    2.2042    0.3630   -6.4835 C   0  0  0  0  0  0  0  0  0  0  0  0
    2.7501    0.9580   -7.7558 C   0  0  0  0  0  0  0  0  0  0  0  0
    2.0343    1.9327   -8.4258 C   0  0  0  0  0  0  0  0  0  0  0  0
    2.5375    2.4821   -9.5902 C   0  0  0  0  0  0  0  0  0  0  0  0
    3.7512    2.0491  -10.0906 C   0  0  0  0  0  0  0  0  0  0  0  0
    4.4642    1.0705   -9.4238 C   0  0  0  0  0  0  0  0  0  0  0  0
    3.9637    0.5250   -8.2563 C   0  0  0  0  0  0  0  0  0  0  0  0
   -0.8356   -0.4013    1.4132 C   0  0  0  0  0  0  0  0  0  0  0  0
   -0.9910    0.3410    2.3537 O   0  0  0  0  0  0  0  0  0  0  0  0
   -3.0064    2.1150    0.5396 H   0  0  0  0  0  0  0  0  0  0  0  0
   -2.8842    2.9010   -0.9711 H   0  0  0  0  0  0  0  0  0  0  0  0
   -2.4562    1.1837   -0.7813 H   0  0  0  0  0  0  0  0  0  0  0  0
   -0.0181    4.0969   -0.4804 H   0  0  0  0  0  0  0  0  0  0  0  0
    0.7544    5.9040    0.2592 H   0  0  0  0  0  0  0  0  0  0  0  0
    1.3524    8.2897    0.2828 H   0  0  0  0  0  0  0  0  0  0  0  0
   -0.4104   10.0051    0.2356 H   0  0  0  0  0  0  0  0  0  0  0  0
   -2.7793    9.3460    0.1554 H   0  0  0  0  0  0  0  0  0  0  0  0
   -3.3980    6.9657    0.1220 H   0  0  0  0  0  0  0  0  0  0  0  0
   -0.5785    3.5471    1.1323 H   0  0  0  0  0  0  0  0  0  0  0  0
    1.7516   -0.3030    0.4767 H   0  0  0  0  0  0  0  0  0  0  0  0
    0.8368   -1.6384   -0.2638 H   0  0  0  0  0  0  0  0  0  0  0  0
    0.3940   -1.6701   -2.6465 H   0  0  0  0  0  0  0  0  0  0  0  0
    1.1164   -0.9317   -4.8807 H   0  0  0  0  0  0  0  0  0  0  0  0
    3.3127    2.2746   -3.1028 H   0  0  0  0  0  0  0  0  0  0  0  0
    2.5776    1.5359   -0.8728 H   0  0  0  0  0  0  0  0  0  0  0  0
    2.5470   -0.6672   -6.3878 H   0  0  0  0  0  0  0  0  0  0  0  0
    1.1147    0.3823   -6.5114 H   0  0  0  0  0  0  0  0  0  0  0  0
    1.0840    2.2678   -8.0373 H   0  0  0  0  0  0  0  0  0  0  0  0
    1.9806    3.2471  -10.1110 H   0  0  0  0  0  0  0  0  0  0  0  0
    4.1426    2.4757  -11.0023 H   0  0  0  0  0  0  0  0  0  0  0  0
    5.4124    0.7322   -9.8147 H   0  0  0  0  0  0  0  0  0  0  0  0
    4.5208   -0.2396   -7.7353 H   0  0  0  0  0  0  0  0  0  0  0  0
   -1.1191   -1.7076    1.5352 O   0  5  0  0  0  0  0  0  0  0  0  0
   -0.0256    1.6068    0.2434 N   0  3  0  0  0  0  0  0  0  0  0  0
    0.9241    1.9176    0.4793 H   0  0  0  0  0  0  0  0  0  0  0  0
  1 32  1  0  0  0  0
  1 33  1  0  0  0  0
  1  2  1  0  0  0  0
  1 31  1  0  0  0  0
  2  3  1  0  0  0  0
  2 55  2  0  0  0  0
  3  4  1  0  0  0  0
  3 34  1  0  0  0  0
  3 40  1  0  0  0  0
  4  5  2  0  0  0  0
  4  6  1  0  0  0  0
  6 11  2  0  0  0  0
  6  7  1  0  0  0  0
  7  8  2  0  0  0  0
  7 35  1  0  0  0  0
  8  9  1  0  0  0  0
  8 36  1  0  0  0  0
  9 10  2  0  0  0  0
  9 37  1  0  0  0  0
 10 11  1  0  0  0  0
 10 38  1  0  0  0  0
 11 39  1  0  0  0  0
 12 13  1  0  0  0  0
 12 14  1  0  0  0  0
 12 29  1  0  0  0  0
 12 55  1  0  0  0  0
 14 15  1  0  0  0  0
 14 41  1  0  0  0  0
 14 42  1  0  0  0  0
 15 20  2  0  0  0  0
 15 16  1  0  0  0  0
 16 17  2  0  0  0  0
 16 43  1  0  0  0  0
 17 18  1  0  0  0  0
 17 44  1  0  0  0  0
 18 19  2  0  0  0  0
 18 21  1  0  0  0  0
 19 20  1  0  0  0  0
 19 45  1  0  0  0  0
 20 46  1  0  0  0  0
 21 22  1  0  0  0  0
 22 23  1  0  0  0  0
 22 47  1  0  0  0  0
 22 48  1  0  0  0  0
 23 28  2  0  0  0  0
 23 24  1  0  0  0  0
 24 25  2  0  0  0  0
 24 49  1  0  0  0  0
 25 26  1  0  0  0  0
 25 50  1  0  0  0  0
 26 27  2  0  0  0  0
 26 51  1  0  0  0  0
 27 28  1  0  0  0  0
 27 52  1  0  0  0  0
 28 53  1  0  0  0  0
 29 30  2  0  0  0  0
 29 54  1  0  0  0  0
 55 56  1  0  0  0  0
M  CHG  2  54  -1  55   1
M  END
$$$$
