ZINC01539579
  -OEChem-08230709403D

 53 55  0     0  0  0  0  0  0999 V2000
    1.2625   -2.1803   -0.0250 C   0  0  0  0  0  0  0  0  0  0  0  0
    1.2242   -0.6738   -0.0138 C   0  0  0  0  0  0  0  0  0  0  0  0
    2.3968    0.0486   -0.0188 C   0  0  0  0  0  0  0  0  0  0  0  0
    2.3748    1.4383   -0.0071 C   0  0  0  0  0  0  0  0  0  0  0  0
    1.1688    2.1058    0.0022 C   0  0  0  0  0  0  0  0  0  0  0  0
   -0.0168    1.3869    0.0097 C   0  0  0  0  0  0  0  0  0  0  0  0
    0.0021   -0.0041    0.0020 C   0  0  0  0  0  0  0  0  0  0  0  0
   -1.2688   -0.7686    0.0111 C   0  0  0  0  0  0  0  0  0  0  0  0
   -1.6995   -1.3650   -1.1080 C   0  0  0  0  0  0  0  0  0  0  0  0
   -2.0618   -0.8725    1.2583 C   0  0  0  0  0  0  0  0  0  0  0  0
   -2.6311    0.2714    1.8201 C   0  0  0  0  0  0  0  0  0  0  0  0
   -3.3727    0.1752    2.9754 C   0  0  0  0  0  0  0  0  0  0  0  0
   -3.5461   -1.0670    3.5925 C   0  0  0  0  0  0  0  0  0  0  0  0
   -2.9707   -2.2111    3.0321 C   0  0  0  0  0  0  0  0  0  0  0  0
   -2.2342   -2.1134    1.8737 C   0  0  0  0  0  0  0  0  0  0  0  0
   -4.3364   -1.1706    4.8345 C   0  0  0  0  0  0  0  0  0  0  0  0
   -4.4871   -2.2505    5.3703 O   0  0  0  0  0  0  0  0  0  0  0  0
    1.0746    3.6094   -0.0018 C   0  0  0  0  0  0  0  0  0  0  0  0
    2.4016    4.2317    0.4274 C   0  0  0  0  0  0  0  0  0  0  0  0
    3.5210    3.6153   -0.4198 C   0  0  0  0  0  0  0  0  0  0  0  0
    3.6984    2.1582    0.0028 C   0  0  0  0  0  0  0  0  0  0  0  0
    4.2887    2.1091    1.4135 C   0  0  0  0  0  0  0  0  0  0  0  0
    4.6566    1.4656   -0.9683 C   0  0  0  0  0  0  0  0  0  0  0  0
    0.7251    4.0892   -1.4120 C   0  0  0  0  0  0  0  0  0  0  0  0
   -0.0253    4.0486    0.9667 C   0  0  0  0  0  0  0  0  0  0  0  0
    1.2624   -2.5361   -1.0553 H   0  0  0  0  0  0  0  0  0  0  0  0
    2.1660   -2.5246    0.4782 H   0  0  0  0  0  0  0  0  0  0  0  0
    0.3866   -2.5698    0.4940 H   0  0  0  0  0  0  0  0  0  0  0  0
    3.3438   -0.4705   -0.0315 H   0  0  0  0  0  0  0  0  0  0  0  0
   -0.9614    1.9104    0.0170 H   0  0  0  0  0  0  0  0  0  0  0  0
   -2.6250   -1.9217   -1.1013 H   0  0  0  0  0  0  0  0  0  0  0  0
   -1.1214   -1.2892   -2.0171 H   0  0  0  0  0  0  0  0  0  0  0  0
   -2.4930    1.2318    1.3457 H   0  0  0  0  0  0  0  0  0  0  0  0
   -3.8168    1.0597    3.4075 H   0  0  0  0  0  0  0  0  0  0  0  0
   -3.1043   -3.1714    3.5079 H   0  0  0  0  0  0  0  0  0  0  0  0
   -1.7899   -2.9972    1.4403 H   0  0  0  0  0  0  0  0  0  0  0  0
    2.3707    5.3093    0.2669 H   0  0  0  0  0  0  0  0  0  0  0  0
    2.5810    4.0226    1.4821 H   0  0  0  0  0  0  0  0  0  0  0  0
    3.2509    3.6618   -1.4747 H   0  0  0  0  0  0  0  0  0  0  0  0
    4.4497    4.1614   -0.2543 H   0  0  0  0  0  0  0  0  0  0  0  0
    4.4354    1.0705    1.7100 H   0  0  0  0  0  0  0  0  0  0  0  0
    5.2466    2.6290    1.4248 H   0  0  0  0  0  0  0  0  0  0  0  0
    3.6045    2.5928    2.1107 H   0  0  0  0  0  0  0  0  0  0  0  0
    4.2353    1.4893   -1.9733 H   0  0  0  0  0  0  0  0  0  0  0  0
    5.6156    1.9836   -0.9640 H   0  0  0  0  0  0  0  0  0  0  0  0
    4.8014    0.4303   -0.6594 H   0  0  0  0  0  0  0  0  0  0  0  0
   -0.2312    3.6625   -1.7144 H   0  0  0  0  0  0  0  0  0  0  0  0
    0.6560    5.1770   -1.4189 H   0  0  0  0  0  0  0  0  0  0  0  0
    1.5015    3.7700   -2.1072 H   0  0  0  0  0  0  0  0  0  0  0  0
    0.2148    3.7003    1.9713 H   0  0  0  0  0  0  0  0  0  0  0  0
   -0.0965    5.1363    0.9666 H   0  0  0  0  0  0  0  0  0  0  0  0
   -0.9779    3.6221    0.6523 H   0  0  0  0  0  0  0  0  0  0  0  0
   -4.8908   -0.0675    5.3742 O   0  5  0  0  0  0  0  0  0  0  0  0
  1  2  1  0  0  0  0
  1 26  1  0  0  0  0
  1 27  1  0  0  0  0
  1 28  1  0  0  0  0
  2  7  2  0  0  0  0
  2  3  1  0  0  0  0
  3  4  2  0  0  0  0
  3 29  1  0  0  0  0
  4 21  1  0  0  0  0
  4  5  1  0  0  0  0
  5  6  2  0  0  0  0
  5 18  1  0  0  0  0
  6  7  1  0  0  0  0
  6 30  1  0  0  0  0
  7  8  1  0  0  0  0
  8  9  2  0  0  0  0
  8 10  1  0  0  0  0
  9 31  1  0  0  0  0
  9 32  1  0  0  0  0
 10 15  2  0  0  0  0
 10 11  1  0  0  0  0
 11 12  2  0  0  0  0
 11 33  1  0  0  0  0
 12 13  1  0  0  0  0
 12 34  1  0  0  0  0
 13 14  2  0  0  0  0
 13 16  1  0  0  0  0
 14 15  1  0  0  0  0
 14 35  1  0  0  0  0
 15 36  1  0  0  0  0
 16 17  2  0  0  0  0
 16 53  1  0  0  0  0
 18 19  1  0  0  0  0
 18 24  1  0  0  0  0
 18 25  1  0  0  0  0
 19 20  1  0  0  0  0
 19 37  1  0  0  0  0
 19 38  1  0  0  0  0
 20 21  1  0  0  0  0
 20 39  1  0  0  0  0
 20 40  1  0  0  0  0
 21 22  1  0  0  0  0
 21 23  1  0  0  0  0
 22 41  1  0  0  0  0
 22 42  1  0  0  0  0
 22 43  1  0  0  0  0
 23 44  1  0  0  0  0
 23 45  1  0  0  0  0
 23 46  1  0  0  0  0
 24 47  1  0  0  0  0
 24 48  1  0  0  0  0
 24 49  1  0  0  0  0
 25 50  1  0  0  0  0
 25 51  1  0  0  0  0
 25 52  1  0  0  0  0
M  CHG  1  53  -1
M  END
$$$$
ZINC03834061
  -OEChem-08230709403D

 53 55  0     0  0  0  0  0  0999 V2000
   -0.1605   -2.8744   -0.0830 C   0  0  0  0  0  0  0  0  0  0  0  0
   -1.4214   -2.0696    0.0999 C   0  0  0  0  0  0  0  0  0  0  0  0
   -2.6382   -2.7046    0.2109 C   0  0  0  0  0  0  0  0  0  0  0  0
   -3.8085   -1.9735    0.3787 C   0  0  0  0  0  0  0  0  0  0  0  0
   -3.7556   -0.5973    0.4411 C   0  0  0  0  0  0  0  0  0  0  0  0
   -2.5350    0.0511    0.3340 C   0  0  0  0  0  0  0  0  0  0  0  0
   -1.3624   -0.6776    0.1573 C   0  0  0  0  0  0  0  0  0  0  0  0
   -0.0608    0.0201    0.0373 C   0  0  0  0  0  0  0  0  0  0  0  0
    0.1737    0.7890   -0.9869 N   0  0  0  0  0  0  0  0  0  0  0  0
    1.3589    1.5623   -1.0351 O   0  0  0  0  0  0  0  0  0  0  0  0
    0.9738   -0.1572    1.0826 C   0  0  0  0  0  0  0  0  0  0  0  0
    2.3233   -0.1969    0.7286 C   0  0  0  0  0  0  0  0  0  0  0  0
    3.2858   -0.3559    1.7001 C   0  0  0  0  0  0  0  0  0  0  0  0
    2.9106   -0.4892    3.0395 C   0  0  0  0  0  0  0  0  0  0  0  0
    1.5591   -0.4551    3.3923 C   0  0  0  0  0  0  0  0  0  0  0  0
    0.5982   -0.2902    2.4202 C   0  0  0  0  0  0  0  0  0  0  0  0
    3.9421   -0.6655    4.0816 C   0  0  0  0  0  0  0  0  0  0  0  0
    3.6156   -0.7809    5.2460 O   0  0  0  0  0  0  0  0  0  0  0  0
   -4.9844    0.2532    0.6318 C   0  0  0  0  0  0  0  0  0  0  0  0
   -6.2451   -0.5426    0.3004 C   0  0  0  0  0  0  0  0  0  0  0  0
   -6.2007   -1.8638    1.0772 C   0  0  0  0  0  0  0  0  0  0  0  0
   -5.1026   -2.7391    0.4771 C   0  0  0  0  0  0  0  0  0  0  0  0
   -5.5273   -3.1937   -0.9207 C   0  0  0  0  0  0  0  0  0  0  0  0
   -4.8954   -3.9678    1.3649 C   0  0  0  0  0  0  0  0  0  0  0  0
   -5.0521    0.7229    2.0864 C   0  0  0  0  0  0  0  0  0  0  0  0
   -4.9014    1.4730   -0.2880 C   0  0  0  0  0  0  0  0  0  0  0  0
    0.3162   -3.0280    0.8851 H   0  0  0  0  0  0  0  0  0  0  0  0
   -0.4068   -3.8404   -0.5240 H   0  0  0  0  0  0  0  0  0  0  0  0
    0.5211   -2.3372   -0.7425 H   0  0  0  0  0  0  0  0  0  0  0  0
   -2.6838   -3.7828    0.1667 H   0  0  0  0  0  0  0  0  0  0  0  0
   -2.4942    1.1292    0.3836 H   0  0  0  0  0  0  0  0  0  0  0  0
    1.4449    2.1009   -1.8335 H   0  0  0  0  0  0  0  0  0  0  0  0
    2.6128   -0.0987   -0.3073 H   0  0  0  0  0  0  0  0  0  0  0  0
    4.3302   -0.3822    1.4265 H   0  0  0  0  0  0  0  0  0  0  0  0
    1.2683   -0.5576    4.4274 H   0  0  0  0  0  0  0  0  0  0  0  0
   -0.4465   -0.2635    2.6928 H   0  0  0  0  0  0  0  0  0  0  0  0
   -7.1267    0.0269    0.5946 H   0  0  0  0  0  0  0  0  0  0  0  0
   -6.2800   -0.7463   -0.7698 H   0  0  0  0  0  0  0  0  0  0  0  0
   -5.9802   -1.6656    2.1261 H   0  0  0  0  0  0  0  0  0  0  0  0
   -7.1619   -2.3711    0.9937 H   0  0  0  0  0  0  0  0  0  0  0  0
   -4.7546   -3.8351   -1.3445 H   0  0  0  0  0  0  0  0  0  0  0  0
   -6.4633   -3.7481   -0.8537 H   0  0  0  0  0  0  0  0  0  0  0  0
   -5.6664   -2.3217   -1.5597 H   0  0  0  0  0  0  0  0  0  0  0  0
   -4.5829   -3.6490    2.3593 H   0  0  0  0  0  0  0  0  0  0  0  0
   -5.8296   -4.5245    1.4386 H   0  0  0  0  0  0  0  0  0  0  0  0
   -4.1260   -4.6053    0.9292 H   0  0  0  0  0  0  0  0  0  0  0  0
   -4.1629    1.3079    2.3210 H   0  0  0  0  0  0  0  0  0  0  0  0
   -5.9402    1.3388    2.2284 H   0  0  0  0  0  0  0  0  0  0  0  0
   -5.1016   -0.1435    2.7460 H   0  0  0  0  0  0  0  0  0  0  0  0
   -4.8432    1.1427   -1.3251 H   0  0  0  0  0  0  0  0  0  0  0  0
   -5.7890    2.0911   -0.1528 H   0  0  0  0  0  0  0  0  0  0  0  0
   -4.0129    2.0543   -0.0413 H   0  0  0  0  0  0  0  0  0  0  0  0
    5.2451   -0.6983    3.7410 O   0  5  0  0  0  0  0  0  0  0  0  0
  1  2  1  0  0  0  0
  1 27  1  0  0  0  0
  1 28  1  0  0  0  0
  1 29  1  0  0  0  0
  2  7  2  0  0  0  0
  2  3  1  0  0  0  0
  3  4  2  0  0  0  0
  3 30  1  0  0  0  0
  4 22  1  0  0  0  0
  4  5  1  0  0  0  0
  5  6  2  0  0  0  0
  5 19  1  0  0  0  0
  6  7  1  0  0  0  0
  6 31  1  0  0  0  0
  7  8  1  0  0  0  0
  8  9  2  0  0  0  0
  8 11  1  0  0  0  0
  9 10  1  0  0  0  0
 10 32  1  0  0  0  0
 11 16  2  0  0  0  0
 11 12  1  0  0  0  0
 12 13  2  0  0  0  0
 12 33  1  0  0  0  0
 13 14  1  0  0  0  0
 13 34  1  0  0  0  0
 14 15  2  0  0  0  0
 14 17  1  0  0  0  0
 15 16  1  0  0  0  0
 15 35  1  0  0  0  0
 16 36  1  0  0  0  0
 17 18  2  0  0  0  0
 17 53  1  0  0  0  0
 19 20  1  0  0  0  0
 19 25  1  0  0  0  0
 19 26  1  0  0  0  0
 20 21  1  0  0  0  0
 20 37  1  0  0  0  0
 20 38  1  0  0  0  0
 21 22  1  0  0  0  0
 21 39  1  0  0  0  0
 21 40  1  0  0  0  0
 22 23  1  0  0  0  0
 22 24  1  0  0  0  0
 23 41  1  0  0  0  0
 23 42  1  0  0  0  0
 23 43  1  0  0  0  0
 24 44  1  0  0  0  0
 24 45  1  0  0  0  0
 24 46  1  0  0  0  0
 25 47  1  0  0  0  0
 25 48  1  0  0  0  0
 25 49  1  0  0  0  0
 26 50  1  0  0  0  0
 26 51  1  0  0  0  0
 26 52  1  0  0  0  0
M  CHG  1  53  -1
M  END
$$$$
ZINC03834062
  -OEChem-08230709403D

 62 64  0     0  0  0  0  0  0999 V2000
    2.9480    3.9897   -3.4216 C   0  0  0  0  0  0  0  0  0  0  0  0
    2.8084    3.1388   -2.1577 C   0  0  0  0  0  0  0  0  0  0  0  0
    1.4973    2.3522   -2.2147 C   0  0  0  0  0  0  0  0  0  0  0  0
    1.3670    1.5575   -1.0342 O   0  0  0  0  0  0  0  0  0  0  0  0
    0.1804    0.7862   -0.9873 N   0  0  0  0  0  0  0  0  0  0  0  0
   -0.0570    0.0186    0.0372 C   0  0  0  0  0  0  0  0  0  0  0  0
    0.9755   -0.1593    1.0844 C   0  0  0  0  0  0  0  0  0  0  0  0
    2.3254   -0.2039    0.7325 C   0  0  0  0  0  0  0  0  0  0  0  0
    3.2860   -0.3635    1.7058 C   0  0  0  0  0  0  0  0  0  0  0  0
    2.9085   -0.4925    3.0449 C   0  0  0  0  0  0  0  0  0  0  0  0
    1.5565   -0.4535    3.3957 C   0  0  0  0  0  0  0  0  0  0  0  0
    0.5975   -0.2881    2.4218 C   0  0  0  0  0  0  0  0  0  0  0  0
    3.9378   -0.6694    4.0890 C   0  0  0  0  0  0  0  0  0  0  0  0
    3.6093   -0.7811    5.2531 O   0  0  0  0  0  0  0  0  0  0  0  0
   -1.3599   -0.6769    0.1556 C   0  0  0  0  0  0  0  0  0  0  0  0
   -2.5316    0.0537    0.3295 C   0  0  0  0  0  0  0  0  0  0  0  0
   -3.7535   -0.5927    0.4350 C   0  0  0  0  0  0  0  0  0  0  0  0
   -3.8084   -1.9689    0.3739 C   0  0  0  0  0  0  0  0  0  0  0  0
   -2.6389   -2.7020    0.2090 C   0  0  0  0  0  0  0  0  0  0  0  0
   -1.4209   -2.0689    0.0996 C   0  0  0  0  0  0  0  0  0  0  0  0
   -0.1609   -2.8759   -0.0803 C   0  0  0  0  0  0  0  0  0  0  0  0
   -5.1038   -2.7324    0.4709 C   0  0  0  0  0  0  0  0  0  0  0  0
   -6.2017   -1.8547    1.0680 C   0  0  0  0  0  0  0  0  0  0  0  0
   -6.2426   -0.5343    0.2898 C   0  0  0  0  0  0  0  0  0  0  0  0
   -4.9813    0.2599    0.6227 C   0  0  0  0  0  0  0  0  0  0  0  0
   -5.0509    0.7312    2.0766 C   0  0  0  0  0  0  0  0  0  0  0  0
   -4.8948    1.4786   -0.2983 C   0  0  0  0  0  0  0  0  0  0  0  0
   -5.5267   -3.1878   -0.9272 C   0  0  0  0  0  0  0  0  0  0  0  0
   -4.9000   -3.9605    1.3603 C   0  0  0  0  0  0  0  0  0  0  0  0
    2.9511    3.3412   -4.2977 H   0  0  0  0  0  0  0  0  0  0  0  0
    2.1103    4.6840   -3.4865 H   0  0  0  0  0  0  0  0  0  0  0  0
    3.8820    4.5501   -3.3810 H   0  0  0  0  0  0  0  0  0  0  0  0
    2.8053    3.7873   -1.2816 H   0  0  0  0  0  0  0  0  0  0  0  0
    3.6462    2.4445   -2.0928 H   0  0  0  0  0  0  0  0  0  0  0  0
    1.5005    1.7037   -3.0908 H   0  0  0  0  0  0  0  0  0  0  0  0
    0.6596    3.0466   -2.2795 H   0  0  0  0  0  0  0  0  0  0  0  0
    2.6168   -0.1090   -0.3031 H   0  0  0  0  0  0  0  0  0  0  0  0
    4.3308   -0.3935    1.4338 H   0  0  0  0  0  0  0  0  0  0  0  0
    1.2639   -0.5527    4.4305 H   0  0  0  0  0  0  0  0  0  0  0  0
   -0.4475   -0.2576    2.6928 H   0  0  0  0  0  0  0  0  0  0  0  0
   -2.4893    1.1318    0.3779 H   0  0  0  0  0  0  0  0  0  0  0  0
   -2.6861   -3.7801    0.1659 H   0  0  0  0  0  0  0  0  0  0  0  0
    0.3138   -3.0291    0.8889 H   0  0  0  0  0  0  0  0  0  0  0  0
   -0.4080   -3.8419   -0.5206 H   0  0  0  0  0  0  0  0  0  0  0  0
    0.5226   -2.3404   -0.7391 H   0  0  0  0  0  0  0  0  0  0  0  0
   -5.9827   -1.6558    2.1171 H   0  0  0  0  0  0  0  0  0  0  0  0
   -7.1634   -2.3607    0.9834 H   0  0  0  0  0  0  0  0  0  0  0  0
   -7.1239    0.0368    0.5818 H   0  0  0  0  0  0  0  0  0  0  0  0
   -6.2759   -0.7391   -0.7803 H   0  0  0  0  0  0  0  0  0  0  0  0
   -4.1612    1.3151    2.3122 H   0  0  0  0  0  0  0  0  0  0  0  0
   -5.9382    1.3486    2.2163 H   0  0  0  0  0  0  0  0  0  0  0  0
   -5.1028   -0.1344    2.7370 H   0  0  0  0  0  0  0  0  0  0  0  0
   -4.8352    1.1472   -1.3349 H   0  0  0  0  0  0  0  0  0  0  0  0
   -5.7817    2.0982   -0.1653 H   0  0  0  0  0  0  0  0  0  0  0  0
   -4.0059    2.0588   -0.0506 H   0  0  0  0  0  0  0  0  0  0  0  0
   -4.7542   -3.8309   -1.3490 H   0  0  0  0  0  0  0  0  0  0  0  0
   -6.4637   -3.7407   -0.8613 H   0  0  0  0  0  0  0  0  0  0  0  0
   -5.6633   -2.3162   -1.5674 H   0  0  0  0  0  0  0  0  0  0  0  0
   -4.5889   -3.6412    2.3550 H   0  0  0  0  0  0  0  0  0  0  0  0
   -5.8353   -4.5157    1.4330 H   0  0  0  0  0  0  0  0  0  0  0  0
   -4.1309   -4.5996    0.9267 H   0  0  0  0  0  0  0  0  0  0  0  0
    5.2413   -0.7069    3.7504 O   0  5  0  0  0  0  0  0  0  0  0  0
  1  2  1  0  0  0  0
  1 30  1  0  0  0  0
  1 31  1  0  0  0  0
  1 32  1  0  0  0  0
  2  3  1  0  0  0  0
  2 33  1  0  0  0  0
  2 34  1  0  0  0  0
  3  4  1  0  0  0  0
  3 35  1  0  0  0  0
  3 36  1  0  0  0  0
  4  5  1  0  0  0  0
  5  6  2  0  0  0  0
  6  7  1  0  0  0  0
  6 15  1  0  0  0  0
  7 12  2  0  0  0  0
  7  8  1  0  0  0  0
  8  9  2  0  0  0  0
  8 37  1  0  0  0  0
  9 10  1  0  0  0  0
  9 38  1  0  0  0  0
 10 11  2  0  0  0  0
 10 13  1  0  0  0  0
 11 12  1  0  0  0  0
 11 39  1  0  0  0  0
 12 40  1  0  0  0  0
 13 14  2  0  0  0  0
 13 62  1  0  0  0  0
 15 20  2  0  0  0  0
 15 16  1  0  0  0  0
 16 17  2  0  0  0  0
 16 41  1  0  0  0  0
 17 25  1  0  0  0  0
 17 18  1  0  0  0  0
 18 19  2  0  0  0  0
 18 22  1  0  0  0  0
 19 20  1  0  0  0  0
 19 42  1  0  0  0  0
 20 21  1  0  0  0  0
 21 43  1  0  0  0  0
 21 44  1  0  0  0  0
 21 45  1  0  0  0  0
 22 23  1  0  0  0  0
 22 28  1  0  0  0  0
 22 29  1  0  0  0  0
 23 24  1  0  0  0  0
 23 46  1  0  0  0  0
 23 47  1  0  0  0  0
 24 25  1  0  0  0  0
 24 48  1  0  0  0  0
 24 49  1  0  0  0  0
 25 26  1  0  0  0  0
 25 27  1  0  0  0  0
 26 50  1  0  0  0  0
 26 51  1  0  0  0  0
 26 52  1  0  0  0  0
 27 53  1  0  0  0  0
 27 54  1  0  0  0  0
 27 55  1  0  0  0  0
 28 56  1  0  0  0  0
 28 57  1  0  0  0  0
 28 58  1  0  0  0  0
 29 59  1  0  0  0  0
 29 60  1  0  0  0  0
 29 61  1  0  0  0  0
M  CHG  1  62  -1
M  END
$$$$
ZINC03834064
  -OEChem-08230709403D

 56 58  0     0  0  0  0  0  0999 V2000
   -0.1609   -2.8756   -0.0808 C   0  0  0  0  0  0  0  0  0  0  0  0
   -1.4210   -2.0690    0.0996 C   0  0  0  0  0  0  0  0  0  0  0  0
   -2.6387   -2.7025    0.2093 C   0  0  0  0  0  0  0  0  0  0  0  0
   -3.8084   -1.9698    0.3748 C   0  0  0  0  0  0  0  0  0  0  0  0
   -3.7539   -0.5937    0.4362 C   0  0  0  0  0  0  0  0  0  0  0  0
   -2.5323    0.0532    0.3304 C   0  0  0  0  0  0  0  0  0  0  0  0
   -1.3604   -0.6771    0.1559 C   0  0  0  0  0  0  0  0  0  0  0  0
   -0.0577    0.0189    0.0372 C   0  0  0  0  0  0  0  0  0  0  0  0
    0.1791    0.7868   -0.9872 N   0  0  0  0  0  0  0  0  0  0  0  0
    1.3654    1.5585   -1.0343 O   0  0  0  0  0  0  0  0  0  0  0  0
    1.4951    2.3535   -2.2146 C   0  0  0  0  0  0  0  0  0  0  0  0
    0.9751   -0.1589    1.0841 C   0  0  0  0  0  0  0  0  0  0  0  0
    2.3250   -0.2026    0.7318 C   0  0  0  0  0  0  0  0  0  0  0  0
    3.2859   -0.3621    1.7047 C   0  0  0  0  0  0  0  0  0  0  0  0
    2.9088   -0.4919    3.0439 C   0  0  0  0  0  0  0  0  0  0  0  0
    1.5570   -0.4538    3.3951 C   0  0  0  0  0  0  0  0  0  0  0  0
    0.5976   -0.2885    2.4215 C   0  0  0  0  0  0  0  0  0  0  0  0
    3.9386   -0.6687    4.0876 C   0  0  0  0  0  0  0  0  0  0  0  0
    3.6104   -0.7811    5.2518 O   0  0  0  0  0  0  0  0  0  0  0  0
   -4.9820    0.2586    0.6244 C   0  0  0  0  0  0  0  0  0  0  0  0
   -6.2431   -0.5360    0.2918 C   0  0  0  0  0  0  0  0  0  0  0  0
   -6.2015   -1.8566    1.0697 C   0  0  0  0  0  0  0  0  0  0  0  0
   -5.1035   -2.7337    0.4720 C   0  0  0  0  0  0  0  0  0  0  0  0
   -5.5268   -3.1889   -0.9261 C   0  0  0  0  0  0  0  0  0  0  0  0
   -4.8991   -3.9620    1.3611 C   0  0  0  0  0  0  0  0  0  0  0  0
   -5.0512    0.7295    2.0785 C   0  0  0  0  0  0  0  0  0  0  0  0
   -4.8961    1.4775   -0.2963 C   0  0  0  0  0  0  0  0  0  0  0  0
    0.3143   -3.0289    0.8881 H   0  0  0  0  0  0  0  0  0  0  0  0
   -0.4077   -3.8416   -0.5213 H   0  0  0  0  0  0  0  0  0  0  0  0
    0.5223   -2.3397   -0.7398 H   0  0  0  0  0  0  0  0  0  0  0  0
   -2.6856   -3.7806    0.1659 H   0  0  0  0  0  0  0  0  0  0  0  0
   -2.4903    1.1313    0.3791 H   0  0  0  0  0  0  0  0  0  0  0  0
    1.4982    1.7052   -3.0908 H   0  0  0  0  0  0  0  0  0  0  0  0
    0.6572    3.0476   -2.2791 H   0  0  0  0  0  0  0  0  0  0  0  0
    2.4290    2.9142   -2.1742 H   0  0  0  0  0  0  0  0  0  0  0  0
    2.6160   -0.1071   -0.3039 H   0  0  0  0  0  0  0  0  0  0  0  0
    4.3306   -0.3914    1.4325 H   0  0  0  0  0  0  0  0  0  0  0  0
    1.2647   -0.5537    4.4300 H   0  0  0  0  0  0  0  0  0  0  0  0
   -0.4473   -0.2587    2.6928 H   0  0  0  0  0  0  0  0  0  0  0  0
   -7.1245    0.0348    0.5843 H   0  0  0  0  0  0  0  0  0  0  0  0
   -6.2767   -0.7405   -0.7783 H   0  0  0  0  0  0  0  0  0  0  0  0
   -5.9823   -1.6578    2.1188 H   0  0  0  0  0  0  0  0  0  0  0  0
   -7.1631   -2.3628    0.9853 H   0  0  0  0  0  0  0  0  0  0  0  0
   -4.7543   -3.8317   -1.3483 H   0  0  0  0  0  0  0  0  0  0  0  0
   -6.4636   -3.7421   -0.8600 H   0  0  0  0  0  0  0  0  0  0  0  0
   -5.6639   -2.3173   -1.5660 H   0  0  0  0  0  0  0  0  0  0  0  0
   -4.5878   -3.6428    2.3557 H   0  0  0  0  0  0  0  0  0  0  0  0
   -5.8342   -4.5174    1.4339 H   0  0  0  0  0  0  0  0  0  0  0  0
   -4.1299   -4.6007    0.9271 H   0  0  0  0  0  0  0  0  0  0  0  0
   -4.1616    1.3137    2.3140 H   0  0  0  0  0  0  0  0  0  0  0  0
   -5.9387    1.3466    2.2187 H   0  0  0  0  0  0  0  0  0  0  0  0
   -5.1026   -0.1362    2.7388 H   0  0  0  0  0  0  0  0  0  0  0  0
   -4.8367    1.1463   -1.3330 H   0  0  0  0  0  0  0  0  0  0  0  0
   -5.7832    2.0968   -0.1629 H   0  0  0  0  0  0  0  0  0  0  0  0
   -4.0073    2.0579   -0.0488 H   0  0  0  0  0  0  0  0  0  0  0  0
    5.2420   -0.7053    3.7486 O   0  5  0  0  0  0  0  0  0  0  0  0
  1  2  1  0  0  0  0
  1 28  1  0  0  0  0
  1 29  1  0  0  0  0
  1 30  1  0  0  0  0
  2  7  2  0  0  0  0
  2  3  1  0  0  0  0
  3  4  2  0  0  0  0
  3 31  1  0  0  0  0
  4 23  1  0  0  0  0
  4  5  1  0  0  0  0
  5  6  2  0  0  0  0
  5 20  1  0  0  0  0
  6  7  1  0  0  0  0
  6 32  1  0  0  0  0
  7  8  1  0  0  0  0
  8  9  2  0  0  0  0
  8 12  1  0  0  0  0
  9 10  1  0  0  0  0
 10 11  1  0  0  0  0
 11 33  1  0  0  0  0
 11 34  1  0  0  0  0
 11 35  1  0  0  0  0
 12 17  2  0  0  0  0
 12 13  1  0  0  0  0
 13 14  2  0  0  0  0
 13 36  1  0  0  0  0
 14 15  1  0  0  0  0
 14 37  1  0  0  0  0
 15 16  2  0  0  0  0
 15 18  1  0  0  0  0
 16 17  1  0  0  0  0
 16 38  1  0  0  0  0
 17 39  1  0  0  0  0
 18 19  2  0  0  0  0
 18 56  1  0  0  0  0
 20 21  1  0  0  0  0
 20 26  1  0  0  0  0
 20 27  1  0  0  0  0
 21 22  1  0  0  0  0
 21 40  1  0  0  0  0
 21 41  1  0  0  0  0
 22 23  1  0  0  0  0
 22 42  1  0  0  0  0
 22 43  1  0  0  0  0
 23 24  1  0  0  0  0
 23 25  1  0  0  0  0
 24 44  1  0  0  0  0
 24 45  1  0  0  0  0
 24 46  1  0  0  0  0
 25 47  1  0  0  0  0
 25 48  1  0  0  0  0
 25 49  1  0  0  0  0
 26 50  1  0  0  0  0
 26 51  1  0  0  0  0
 26 52  1  0  0  0  0
 27 53  1  0  0  0  0
 27 54  1  0  0  0  0
 27 55  1  0  0  0  0
M  CHG  1  56  -1
M  END
$$$$
ZINC03834065
  -OEChem-08230709403D

 57 59  0     0  0  0  0  0  0999 V2000
   -0.1609   -2.8759   -0.0803 C   0  0  0  0  0  0  0  0  0  0  0  0
   -1.4209   -2.0689    0.0996 C   0  0  0  0  0  0  0  0  0  0  0  0
   -2.6389   -2.7020    0.2090 C   0  0  0  0  0  0  0  0  0  0  0  0
   -3.8084   -1.9689    0.3740 C   0  0  0  0  0  0  0  0  0  0  0  0
   -3.7535   -0.5928    0.4351 C   0  0  0  0  0  0  0  0  0  0  0  0
   -2.5317    0.0537    0.3295 C   0  0  0  0  0  0  0  0  0  0  0  0
   -1.3599   -0.6769    0.1556 C   0  0  0  0  0  0  0  0  0  0  0  0
   -0.0570    0.0186    0.0372 C   0  0  0  0  0  0  0  0  0  0  0  0
    0.1804    0.7862   -0.9873 N   0  0  0  0  0  0  0  0  0  0  0  0
    1.3669    1.5575   -1.0342 O   0  0  0  0  0  0  0  0  0  0  0  0
    1.4972    2.3523   -2.2147 C   0  0  0  0  0  0  0  0  0  0  0  0
    2.7586    3.1091   -2.1599 C   0  0  0  0  0  0  0  0  0  0  0  0
    3.7321    3.6931   -2.1176 N   0  0  0  0  0  0  0  0  0  0  0  0
    0.9755   -0.1593    1.0844 C   0  0  0  0  0  0  0  0  0  0  0  0
    2.3254   -0.2039    0.7324 C   0  0  0  0  0  0  0  0  0  0  0  0
    3.2860   -0.3634    1.7057 C   0  0  0  0  0  0  0  0  0  0  0  0
    2.9085   -0.4924    3.0449 C   0  0  0  0  0  0  0  0  0  0  0  0
    1.5565   -0.4535    3.3957 C   0  0  0  0  0  0  0  0  0  0  0  0
    0.5975   -0.2881    2.4218 C   0  0  0  0  0  0  0  0  0  0  0  0
    3.9379   -0.6693    4.0889 C   0  0  0  0  0  0  0  0  0  0  0  0
    3.6093   -0.7811    5.2531 O   0  0  0  0  0  0  0  0  0  0  0  0
   -4.9813    0.2598    0.6228 C   0  0  0  0  0  0  0  0  0  0  0  0
   -6.2427   -0.5344    0.2899 C   0  0  0  0  0  0  0  0  0  0  0  0
   -6.2017   -1.8548    1.0681 C   0  0  0  0  0  0  0  0  0  0  0  0
   -5.1037   -2.7324    0.4709 C   0  0  0  0  0  0  0  0  0  0  0  0
   -5.5267   -3.1878   -0.9272 C   0  0  0  0  0  0  0  0  0  0  0  0
   -4.9000   -3.9606    1.3604 C   0  0  0  0  0  0  0  0  0  0  0  0
   -5.0509    0.7311    2.0767 C   0  0  0  0  0  0  0  0  0  0  0  0
   -4.8948    1.4786   -0.2982 C   0  0  0  0  0  0  0  0  0  0  0  0
    0.3139   -3.0291    0.8888 H   0  0  0  0  0  0  0  0  0  0  0  0
   -0.4079   -3.8419   -0.5206 H   0  0  0  0  0  0  0  0  0  0  0  0
    0.5226   -2.3404   -0.7391 H   0  0  0  0  0  0  0  0  0  0  0  0
   -2.6861   -3.7801    0.1659 H   0  0  0  0  0  0  0  0  0  0  0  0
   -2.4893    1.1318    0.3780 H   0  0  0  0  0  0  0  0  0  0  0  0
    1.5003    1.7038   -3.0908 H   0  0  0  0  0  0  0  0  0  0  0  0
    0.6595    3.0466   -2.2795 H   0  0  0  0  0  0  0  0  0  0  0  0
    2.6167   -0.1089   -0.3032 H   0  0  0  0  0  0  0  0  0  0  0  0
    4.3308   -0.3934    1.4338 H   0  0  0  0  0  0  0  0  0  0  0  0
    1.2639   -0.5528    4.4305 H   0  0  0  0  0  0  0  0  0  0  0  0
   -0.4475   -0.2576    2.6928 H   0  0  0  0  0  0  0  0  0  0  0  0
   -7.1239    0.0367    0.5820 H   0  0  0  0  0  0  0  0  0  0  0  0
   -6.2759   -0.7392   -0.7802 H   0  0  0  0  0  0  0  0  0  0  0  0
   -5.9827   -1.6559    2.1172 H   0  0  0  0  0  0  0  0  0  0  0  0
   -7.1634   -2.3608    0.9835 H   0  0  0  0  0  0  0  0  0  0  0  0
   -4.7542   -3.8309   -1.3490 H   0  0  0  0  0  0  0  0  0  0  0  0
   -6.4637   -3.7408   -0.8612 H   0  0  0  0  0  0  0  0  0  0  0  0
   -5.6634   -2.3163   -1.5673 H   0  0  0  0  0  0  0  0  0  0  0  0
   -4.5888   -3.6412    2.3550 H   0  0  0  0  0  0  0  0  0  0  0  0
   -5.8352   -4.5157    1.4330 H   0  0  0  0  0  0  0  0  0  0  0  0
   -4.1308   -4.5996    0.9267 H   0  0  0  0  0  0  0  0  0  0  0  0
   -4.1612    1.3151    2.3123 H   0  0  0  0  0  0  0  0  0  0  0  0
   -5.9382    1.3485    2.2165 H   0  0  0  0  0  0  0  0  0  0  0  0
   -5.1028   -0.1345    2.7371 H   0  0  0  0  0  0  0  0  0  0  0  0
   -4.8353    1.1471   -1.3348 H   0  0  0  0  0  0  0  0  0  0  0  0
   -5.7818    2.0981   -0.1652 H   0  0  0  0  0  0  0  0  0  0  0  0
   -4.0059    2.0587   -0.0505 H   0  0  0  0  0  0  0  0  0  0  0  0
    5.2413   -0.7068    3.7503 O   0  5  0  0  0  0  0  0  0  0  0  0
  1  2  1  0  0  0  0
  1 30  1  0  0  0  0
  1 31  1  0  0  0  0
  1 32  1  0  0  0  0
  2  7  2  0  0  0  0
  2  3  1  0  0  0  0
  3  4  2  0  0  0  0
  3 33  1  0  0  0  0
  4 25  1  0  0  0  0
  4  5  1  0  0  0  0
  5  6  2  0  0  0  0
  5 22  1  0  0  0  0
  6  7  1  0  0  0  0
  6 34  1  0  0  0  0
  7  8  1  0  0  0  0
  8  9  2  0  0  0  0
  8 14  1  0  0  0  0
  9 10  1  0  0  0  0
 10 11  1  0  0  0  0
 11 12  1  0  0  0  0
 11 35  1  0  0  0  0
 11 36  1  0  0  0  0
 12 13  3  0  0  0  0
 14 19  2  0  0  0  0
 14 15  1  0  0  0  0
 15 16  2  0  0  0  0
 15 37  1  0  0  0  0
 16 17  1  0  0  0  0
 16 38  1  0  0  0  0
 17 18  2  0  0  0  0
 17 20  1  0  0  0  0
 18 19  1  0  0  0  0
 18 39  1  0  0  0  0
 19 40  1  0  0  0  0
 20 21  2  0  0  0  0
 20 57  1  0  0  0  0
 22 23  1  0  0  0  0
 22 28  1  0  0  0  0
 22 29  1  0  0  0  0
 23 24  1  0  0  0  0
 23 41  1  0  0  0  0
 23 42  1  0  0  0  0
 24 25  1  0  0  0  0
 24 43  1  0  0  0  0
 24 44  1  0  0  0  0
 25 26  1  0  0  0  0
 25 27  1  0  0  0  0
 26 45  1  0  0  0  0
 26 46  1  0  0  0  0
 26 47  1  0  0  0  0
 27 48  1  0  0  0  0
 27 49  1  0  0  0  0
 27 50  1  0  0  0  0
 28 51  1  0  0  0  0
 28 52  1  0  0  0  0
 28 53  1  0  0  0  0
 29 54  1  0  0  0  0
 29 55  1  0  0  0  0
 29 56  1  0  0  0  0
M  CHG  1  57  -1
M  END
$$$$
ZINC03834066
  -OEChem-08230709403D

 50 52  0     0  0  0  0  0  0999 V2000
   -1.0347    6.1086   -2.9755 C   0  0  0  0  0  0  0  0  0  0  0  0
   -0.4416    6.0432   -1.5667 C   0  0  0  0  0  0  0  0  0  0  0  0
    0.9015    6.7701   -1.5514 C   0  0  0  0  0  0  0  0  0  0  0  0
    1.9043    5.9497   -2.3712 C   0  0  0  0  0  0  0  0  0  0  0  0
    2.2241    4.6702   -1.6013 C   0  0  0  0  0  0  0  0  0  0  0  0
    0.9561    3.9669   -1.1914 C   0  0  0  0  0  0  0  0  0  0  0  0
   -0.2680    4.6009   -1.1672 C   0  0  0  0  0  0  0  0  0  0  0  0
   -1.3975    3.9047   -0.7656 C   0  0  0  0  0  0  0  0  0  0  0  0
   -1.3069    2.5658   -0.3963 C   0  0  0  0  0  0  0  0  0  0  0  0
   -0.0655    1.9291   -0.4218 C   0  0  0  0  0  0  0  0  0  0  0  0
    1.0516    2.6308   -0.8205 C   0  0  0  0  0  0  0  0  0  0  0  0
    0.0818    0.1119    0.0802 Br  0  0  0  0  0  0  0  0  0  0  0  0
   -2.5178    1.8242    0.0259 C   0  0  0  0  0  0  0  0  0  0  0  0
   -2.4475    0.5467    0.2676 N   0  0  0  0  0  0  0  0  0  0  0  0
   -3.6257   -0.1862    0.5504 O   0  0  0  0  0  0  0  0  0  0  0  0
   -3.8085    2.5360    0.1731 C   0  0  0  0  0  0  0  0  0  0  0  0
   -4.5927    2.3306    1.3093 C   0  0  0  0  0  0  0  0  0  0  0  0
   -5.7902    2.9955    1.4491 C   0  0  0  0  0  0  0  0  0  0  0  0
   -6.2254    3.8680    0.4483 C   0  0  0  0  0  0  0  0  0  0  0  0
   -5.4422    4.0690   -0.6913 C   0  0  0  0  0  0  0  0  0  0  0  0
   -4.2425    3.4074   -0.8271 C   0  0  0  0  0  0  0  0  0  0  0  0
   -7.5122    4.5776    0.5951 C   0  0  0  0  0  0  0  0  0  0  0  0
   -7.8901    5.3364   -0.2751 O   0  0  0  0  0  0  0  0  0  0  0  0
    3.0322    5.0227   -0.3508 C   0  0  0  0  0  0  0  0  0  0  0  0
    3.0520    3.7402   -2.4903 C   0  0  0  0  0  0  0  0  0  0  0  0
   -1.3965    6.7269   -0.5860 C   0  0  0  0  0  0  0  0  0  0  0  0
   -2.0027    5.6076   -2.9859 H   0  0  0  0  0  0  0  0  0  0  0  0
   -1.1619    7.1508   -3.2682 H   0  0  0  0  0  0  0  0  0  0  0  0
   -0.3621    5.6139   -3.6762 H   0  0  0  0  0  0  0  0  0  0  0  0
    0.7883    7.7599   -1.9937 H   0  0  0  0  0  0  0  0  0  0  0  0
    1.2559    6.8650   -0.5251 H   0  0  0  0  0  0  0  0  0  0  0  0
    1.4686    5.6971   -3.3379 H   0  0  0  0  0  0  0  0  0  0  0  0
    2.8167    6.5272   -2.5195 H   0  0  0  0  0  0  0  0  0  0  0  0
   -2.3552    4.4033   -0.7439 H   0  0  0  0  0  0  0  0  0  0  0  0
    2.0119    2.1372   -0.8447 H   0  0  0  0  0  0  0  0  0  0  0  0
   -3.4736   -1.1266    0.7165 H   0  0  0  0  0  0  0  0  0  0  0  0
   -4.2582    1.6527    2.0807 H   0  0  0  0  0  0  0  0  0  0  0  0
   -6.3949    2.8395    2.3303 H   0  0  0  0  0  0  0  0  0  0  0  0
   -5.7778    4.7435   -1.4652 H   0  0  0  0  0  0  0  0  0  0  0  0
   -3.6369    3.5629   -1.7077 H   0  0  0  0  0  0  0  0  0  0  0  0
    3.2796    4.1099    0.1911 H   0  0  0  0  0  0  0  0  0  0  0  0
    3.9505    5.5318   -0.6433 H   0  0  0  0  0  0  0  0  0  0  0  0
    2.4422    5.6774    0.2905 H   0  0  0  0  0  0  0  0  0  0  0  0
    2.4762    3.4783   -3.3780 H   0  0  0  0  0  0  0  0  0  0  0  0
    3.9704    4.2456   -2.7890 H   0  0  0  0  0  0  0  0  0  0  0  0
    3.2993    2.8340   -1.9373 H   0  0  0  0  0  0  0  0  0  0  0  0
   -0.9824    6.6741    0.4209 H   0  0  0  0  0  0  0  0  0  0  0  0
   -1.5247    7.7709   -0.8719 H   0  0  0  0  0  0  0  0  0  0  0  0
   -2.3626    6.2228   -0.6084 H   0  0  0  0  0  0  0  0  0  0  0  0
   -8.2670    4.3835    1.6940 O   0  5  0  0  0  0  0  0  0  0  0  0
  1  2  1  0  0  0  0
  1 27  1  0  0  0  0
  1 28  1  0  0  0  0
  1 29  1  0  0  0  0
  2  7  1  0  0  0  0
  2  3  1  0  0  0  0
  2 26  1  0  0  0  0
  3  4  1  0  0  0  0
  3 30  1  0  0  0  0
  3 31  1  0  0  0  0
  4  5  1  0  0  0  0
  4 32  1  0  0  0  0
  4 33  1  0  0  0  0
  5  6  1  0  0  0  0
  5 24  1  0  0  0  0
  5 25  1  0  0  0  0
  6 11  2  0  0  0  0
  6  7  1  0  0  0  0
  7  8  2  0  0  0  0
  8  9  1  0  0  0  0
  8 34  1  0  0  0  0
  9 10  2  0  0  0  0
  9 13  1  0  0  0  0
 10 11  1  0  0  0  0
 10 12  1  0  0  0  0
 11 35  1  0  0  0  0
 13 14  2  0  0  0  0
 13 16  1  0  0  0  0
 14 15  1  0  0  0  0
 15 36  1  0  0  0  0
 16 21  2  0  0  0  0
 16 17  1  0  0  0  0
 17 18  2  0  0  0  0
 17 37  1  0  0  0  0
 18 19  1  0  0  0  0
 18 38  1  0  0  0  0
 19 20  2  0  0  0  0
 19 22  1  0  0  0  0
 20 21  1  0  0  0  0
 20 39  1  0  0  0  0
 21 40  1  0  0  0  0
 22 23  2  0  0  0  0
 22 50  1  0  0  0  0
 24 41  1  0  0  0  0
 24 42  1  0  0  0  0
 24 43  1  0  0  0  0
 25 44  1  0  0  0  0
 25 45  1  0  0  0  0
 25 46  1  0  0  0  0
 26 47  1  0  0  0  0
 26 48  1  0  0  0  0
 26 49  1  0  0  0  0
M  CHG  1  50  -1
M  END
$$$$
ZINC03834067
  -OEChem-08230709403D

 63 66  0     0  0  0  0  0  0999 V2000
   -3.7192    3.6929   -0.0223 C   0  0  0  0  0  0  0  0  0  0  0  0
   -2.3853    4.3770    0.1319 C   0  0  0  0  0  0  0  0  0  0  0  0
   -2.3186    5.7483    0.2374 C   0  0  0  0  0  0  0  0  0  0  0  0
   -1.0942    6.3913    0.3788 C   0  0  0  0  0  0  0  0  0  0  0  0
    0.0688    5.6524    0.4203 C   0  0  0  0  0  0  0  0  0  0  0  0
    0.0118    4.2710    0.3186 C   0  0  0  0  0  0  0  0  0  0  0  0
   -1.2117    3.6248    0.1682 C   0  0  0  0  0  0  0  0  0  0  0  0
   -1.2672    2.1486    0.0538 C   0  0  0  0  0  0  0  0  0  0  0  0
   -0.7413    1.5555   -0.9790 N   0  0  0  0  0  0  0  0  0  0  0  0
   -0.6717    0.1419   -1.0243 O   0  0  0  0  0  0  0  0  0  0  0  0
   -0.0712   -0.3726   -2.2146 C   0  0  0  0  0  0  0  0  0  0  0  0
   -0.0491   -1.9013   -2.1549 C   0  0  0  0  0  0  0  0  0  0  0  0
    1.3180   -2.5878   -2.1337 C   0  0  0  0  0  0  0  0  0  0  0  0
    0.4505   -2.6494   -3.3925 C   0  0  0  0  0  0  0  0  0  0  0  0
   -1.9211    1.3476    1.1145 C   0  0  0  0  0  0  0  0  0  0  0  0
   -1.8099    1.7360    2.4505 C   0  0  0  0  0  0  0  0  0  0  0  0
   -2.4125    0.9889    3.4375 C   0  0  0  0  0  0  0  0  0  0  0  0
   -3.1357   -0.1585    3.1014 C   0  0  0  0  0  0  0  0  0  0  0  0
   -3.2466   -0.5467    1.7637 C   0  0  0  0  0  0  0  0  0  0  0  0
   -2.6433    0.2016    0.7779 C   0  0  0  0  0  0  0  0  0  0  0  0
   -3.7829   -0.9603    4.1594 C   0  0  0  0  0  0  0  0  0  0  0  0
   -4.4118   -1.9575    3.8668 O   0  0  0  0  0  0  0  0  0  0  0  0
    1.4262    6.2858    0.5822 C   0  0  0  0  0  0  0  0  0  0  0  0
    1.3674    7.7747    0.2473 C   0  0  0  0  0  0  0  0  0  0  0  0
    0.2194    8.4045    1.0451 C   0  0  0  0  0  0  0  0  0  0  0  0
   -1.1016    7.8951    0.4728 C   0  0  0  0  0  0  0  0  0  0  0  0
   -1.3082    8.4868   -0.9230 C   0  0  0  0  0  0  0  0  0  0  0  0
   -2.2495    8.3380    1.3823 C   0  0  0  0  0  0  0  0  0  0  0  0
    1.8947    6.1121    2.0283 C   0  0  0  0  0  0  0  0  0  0  0  0
    2.4196    5.5966   -0.3553 C   0  0  0  0  0  0  0  0  0  0  0  0
   -4.0726    3.3614    0.9541 H   0  0  0  0  0  0  0  0  0  0  0  0
   -4.4381    4.3910   -0.4511 H   0  0  0  0  0  0  0  0  0  0  0  0
   -3.6117    2.8314   -0.6815 H   0  0  0  0  0  0  0  0  0  0  0  0
   -3.2276    6.3309    0.2095 H   0  0  0  0  0  0  0  0  0  0  0  0
    0.9234    3.6927    0.3517 H   0  0  0  0  0  0  0  0  0  0  0  0
   -0.6489   -0.0511   -3.0812 H   0  0  0  0  0  0  0  0  0  0  0  0
    0.9488    0.0025   -2.2984 H   0  0  0  0  0  0  0  0  0  0  0  0
   -0.8525   -2.3610   -1.5792 H   0  0  0  0  0  0  0  0  0  0  0  0
    2.2018   -1.9504   -2.1622 H   0  0  0  0  0  0  0  0  0  0  0  0
    1.4144   -3.4993   -1.5438 H   0  0  0  0  0  0  0  0  0  0  0  0
   -0.0238   -3.6015   -3.6307 H   0  0  0  0  0  0  0  0  0  0  0  0
    0.7632   -2.0526   -4.2493 H   0  0  0  0  0  0  0  0  0  0  0  0
   -1.2506    2.6227    2.7101 H   0  0  0  0  0  0  0  0  0  0  0  0
   -2.3266    1.2897    4.4711 H   0  0  0  0  0  0  0  0  0  0  0  0
   -3.8056   -1.4332    1.5030 H   0  0  0  0  0  0  0  0  0  0  0  0
   -2.7292   -0.0981   -0.2561 H   0  0  0  0  0  0  0  0  0  0  0  0
    2.3091    8.2502    0.5215 H   0  0  0  0  0  0  0  0  0  0  0  0
    1.1878    7.9042   -0.8200 H   0  0  0  0  0  0  0  0  0  0  0  0
    0.3002    8.1174    2.0935 H   0  0  0  0  0  0  0  0  0  0  0  0
    0.2638    9.4901    0.9574 H   0  0  0  0  0  0  0  0  0  0  0  0
   -2.2598    8.1413   -1.3269 H   0  0  0  0  0  0  0  0  0  0  0  0
   -1.3141    9.5749   -0.8592 H   0  0  0  0  0  0  0  0  0  0  0  0
   -0.4977    8.1656   -1.5773 H   0  0  0  0  0  0  0  0  0  0  0  0
   -2.1117    7.9106    2.3755 H   0  0  0  0  0  0  0  0  0  0  0  0
   -2.2582    9.4257    1.4529 H   0  0  0  0  0  0  0  0  0  0  0  0
   -3.1963    7.9933    0.9665 H   0  0  0  0  0  0  0  0  0  0  0  0
    1.9567    5.0499    2.2651 H   0  0  0  0  0  0  0  0  0  0  0  0
    2.8768    6.5692    2.1495 H   0  0  0  0  0  0  0  0  0  0  0  0
    1.1845    6.5934    2.7007 H   0  0  0  0  0  0  0  0  0  0  0  0
    2.0844    5.7096   -1.3864 H   0  0  0  0  0  0  0  0  0  0  0  0
    3.4032    6.0523   -0.2410 H   0  0  0  0  0  0  0  0  0  0  0  0
    2.4789    4.5371   -0.1065 H   0  0  0  0  0  0  0  0  0  0  0  0
   -3.6757   -0.5857    5.4491 O   0  5  0  0  0  0  0  0  0  0  0  0
  1  2  1  0  0  0  0
  1 31  1  0  0  0  0
  1 32  1  0  0  0  0
  1 33  1  0  0  0  0
  2  7  2  0  0  0  0
  2  3  1  0  0  0  0
  3  4  2  0  0  0  0
  3 34  1  0  0  0  0
  4 26  1  0  0  0  0
  4  5  1  0  0  0  0
  5  6  2  0  0  0  0
  5 23  1  0  0  0  0
  6  7  1  0  0  0  0
  6 35  1  0  0  0  0
  7  8  1  0  0  0  0
  8  9  2  0  0  0  0
  8 15  1  0  0  0  0
  9 10  1  0  0  0  0
 10 11  1  0  0  0  0
 11 12  1  0  0  0  0
 11 36  1  0  0  0  0
 11 37  1  0  0  0  0
 12 14  1  0  0  0  0
 12 13  1  0  0  0  0
 12 38  1  0  0  0  0
 13 14  1  0  0  0  0
 13 39  1  0  0  0  0
 13 40  1  0  0  0  0
 14 41  1  0  0  0  0
 14 42  1  0  0  0  0
 15 20  2  0  0  0  0
 15 16  1  0  0  0  0
 16 17  2  0  0  0  0
 16 43  1  0  0  0  0
 17 18  1  0  0  0  0
 17 44  1  0  0  0  0
 18 19  2  0  0  0  0
 18 21  1  0  0  0  0
 19 20  1  0  0  0  0
 19 45  1  0  0  0  0
 20 46  1  0  0  0  0
 21 22  2  0  0  0  0
 21 63  1  0  0  0  0
 23 24  1  0  0  0  0
 23 29  1  0  0  0  0
 23 30  1  0  0  0  0
 24 25  1  0  0  0  0
 24 47  1  0  0  0  0
 24 48  1  0  0  0  0
 25 26  1  0  0  0  0
 25 49  1  0  0  0  0
 25 50  1  0  0  0  0
 26 27  1  0  0  0  0
 26 28  1  0  0  0  0
 27 51  1  0  0  0  0
 27 52  1  0  0  0  0
 27 53  1  0  0  0  0
 28 54  1  0  0  0  0
 28 55  1  0  0  0  0
 28 56  1  0  0  0  0
 29 57  1  0  0  0  0
 29 58  1  0  0  0  0
 29 59  1  0  0  0  0
 30 60  1  0  0  0  0
 30 61  1  0  0  0  0
 30 62  1  0  0  0  0
M  CHG  1  63  -1
M  END
$$$$
ZINC03834068
  -OEChem-08230709403D

 59 61  0     0  0  0  0  0  0999 V2000
   -0.6774   -1.5290   -4.4277 C   0  0  0  0  0  0  0  0  0  0  0  0
   -1.2117   -0.6977   -3.2597 C   0  0  0  0  0  0  0  0  0  0  0  0
   -0.3097   -0.7928   -2.1554 O   0  0  0  0  0  0  0  0  0  0  0  0
   -0.7140   -0.0551   -1.0164 N   0  0  0  0  0  0  0  0  0  0  0  0
    0.0680    0.0199    0.0219 C   0  0  0  0  0  0  0  0  0  0  0  0
   -0.2998    0.8871    1.1651 C   0  0  0  0  0  0  0  0  0  0  0  0
    0.4550    0.8517    2.3386 C   0  0  0  0  0  0  0  0  0  0  0  0
    0.1171    1.6615    3.3995 C   0  0  0  0  0  0  0  0  0  0  0  0
   -0.9882    2.5110    3.3052 C   0  0  0  0  0  0  0  0  0  0  0  0
   -1.7467    2.5417    2.1321 C   0  0  0  0  0  0  0  0  0  0  0  0
   -1.4044    1.7351    1.0702 C   0  0  0  0  0  0  0  0  0  0  0  0
   -1.3544    3.3763    4.4446 C   0  0  0  0  0  0  0  0  0  0  0  0
   -2.3152    4.1150    4.3621 O   0  0  0  0  0  0  0  0  0  0  0  0
    1.3259   -0.7621    0.0599 C   0  0  0  0  0  0  0  0  0  0  0  0
    1.2863   -2.1528    0.0958 C   0  0  0  0  0  0  0  0  0  0  0  0
    2.4610   -2.8886    0.1247 C   0  0  0  0  0  0  0  0  0  0  0  0
    3.6768   -2.2389    0.1253 C   0  0  0  0  0  0  0  0  0  0  0  0
    3.7198   -0.8497    0.0987 C   0  0  0  0  0  0  0  0  0  0  0  0
    2.5586   -0.1102    0.0658 C   0  0  0  0  0  0  0  0  0  0  0  0
    2.6197    1.3953    0.0358 C   0  0  0  0  0  0  0  0  0  0  0  0
    4.9896   -2.9782    0.1453 C   0  0  0  0  0  0  0  0  0  0  0  0
    4.7869   -4.4215    0.6013 C   0  0  0  0  0  0  0  0  0  0  0  0
    3.6653   -5.0419   -0.2401 C   0  0  0  0  0  0  0  0  0  0  0  0
    2.3443   -4.3901    0.1631 C   0  0  0  0  0  0  0  0  0  0  0  0
    1.9760   -4.8315    1.5810 C   0  0  0  0  0  0  0  0  0  0  0  0
    1.2459   -4.8357   -0.8044 C   0  0  0  0  0  0  0  0  0  0  0  0
    5.5926   -2.9735   -1.2608 C   0  0  0  0  0  0  0  0  0  0  0  0
    5.9497   -2.2754    1.1073 C   0  0  0  0  0  0  0  0  0  0  0  0
   -0.5874   -2.5711   -4.1208 H   0  0  0  0  0  0  0  0  0  0  0  0
   -1.3654   -1.4565   -5.2700 H   0  0  0  0  0  0  0  0  0  0  0  0
    0.3012   -1.1518   -4.7244 H   0  0  0  0  0  0  0  0  0  0  0  0
   -2.1904   -1.0748   -2.9629 H   0  0  0  0  0  0  0  0  0  0  0  0
   -1.3017    0.3444   -3.5666 H   0  0  0  0  0  0  0  0  0  0  0  0
    1.3067    0.1918    2.4129 H   0  0  0  0  0  0  0  0  0  0  0  0
    0.7041    1.6375    4.3058 H   0  0  0  0  0  0  0  0  0  0  0  0
   -2.6010    3.1983    2.0583 H   0  0  0  0  0  0  0  0  0  0  0  0
   -1.9905    1.7587    0.1634 H   0  0  0  0  0  0  0  0  0  0  0  0
    0.3341   -2.6624    0.0962 H   0  0  0  0  0  0  0  0  0  0  0  0
    4.6745   -0.3448    0.1036 H   0  0  0  0  0  0  0  0  0  0  0  0
    2.7024    1.7759    1.0539 H   0  0  0  0  0  0  0  0  0  0  0  0
    3.4878    1.7123   -0.5422 H   0  0  0  0  0  0  0  0  0  0  0  0
    1.7132    1.7866   -0.4259 H   0  0  0  0  0  0  0  0  0  0  0  0
    4.5073   -4.4379    1.6548 H   0  0  0  0  0  0  0  0  0  0  0  0
    5.7085   -4.9854    0.4574 H   0  0  0  0  0  0  0  0  0  0  0  0
    3.6173   -6.1148   -0.0540 H   0  0  0  0  0  0  0  0  0  0  0  0
    3.8562   -4.8610   -1.2979 H   0  0  0  0  0  0  0  0  0  0  0  0
    1.0237   -4.3837    1.8651 H   0  0  0  0  0  0  0  0  0  0  0  0
    1.8907   -5.9177    1.6128 H   0  0  0  0  0  0  0  0  0  0  0  0
    2.7514   -4.5075    2.2753 H   0  0  0  0  0  0  0  0  0  0  0  0
    1.4995   -4.5147   -1.8147 H   0  0  0  0  0  0  0  0  0  0  0  0
    1.1585   -5.9219   -0.7794 H   0  0  0  0  0  0  0  0  0  0  0  0
    0.2973   -4.3879   -0.5082 H   0  0  0  0  0  0  0  0  0  0  0  0
    5.7574   -1.9450   -1.5820 H   0  0  0  0  0  0  0  0  0  0  0  0
    6.5428   -3.5075   -1.2505 H   0  0  0  0  0  0  0  0  0  0  0  0
    4.9073   -3.4645   -1.9517 H   0  0  0  0  0  0  0  0  0  0  0  0
    5.5195   -2.2676    2.1088 H   0  0  0  0  0  0  0  0  0  0  0  0
    6.9008   -2.8074    1.1245 H   0  0  0  0  0  0  0  0  0  0  0  0
    6.1126   -1.2505    0.7738 H   0  0  0  0  0  0  0  0  0  0  0  0
   -0.6228    3.3464    5.5755 O   0  5  0  0  0  0  0  0  0  0  0  0
  1  2  1  0  0  0  0
  1 29  1  0  0  0  0
  1 30  1  0  0  0  0
  1 31  1  0  0  0  0
  2  3  1  0  0  0  0
  2 32  1  0  0  0  0
  2 33  1  0  0  0  0
  3  4  1  0  0  0  0
  4  5  2  0  0  0  0
  5  6  1  0  0  0  0
  5 14  1  0  0  0  0
  6 11  2  0  0  0  0
  6  7  1  0  0  0  0
  7  8  2  0  0  0  0
  7 34  1  0  0  0  0
  8  9  1  0  0  0  0
  8 35  1  0  0  0  0
  9 10  2  0  0  0  0
  9 12  1  0  0  0  0
 10 11  1  0  0  0  0
 10 36  1  0  0  0  0
 11 37  1  0  0  0  0
 12 13  2  0  0  0  0
 12 59  1  0  0  0  0
 14 19  2  0  0  0  0
 14 15  1  0  0  0  0
 15 16  2  0  0  0  0
 15 38  1  0  0  0  0
 16 24  1  0  0  0  0
 16 17  1  0  0  0  0
 17 18  2  0  0  0  0
 17 21  1  0  0  0  0
 18 19  1  0  0  0  0
 18 39  1  0  0  0  0
 19 20  1  0  0  0  0
 20 40  1  0  0  0  0
 20 41  1  0  0  0  0
 20 42  1  0  0  0  0
 21 22  1  0  0  0  0
 21 27  1  0  0  0  0
 21 28  1  0  0  0  0
 22 23  1  0  0  0  0
 22 43  1  0  0  0  0
 22 44  1  0  0  0  0
 23 24  1  0  0  0  0
 23 45  1  0  0  0  0
 23 46  1  0  0  0  0
 24 25  1  0  0  0  0
 24 26  1  0  0  0  0
 25 47  1  0  0  0  0
 25 48  1  0  0  0  0
 25 49  1  0  0  0  0
 26 50  1  0  0  0  0
 26 51  1  0  0  0  0
 26 52  1  0  0  0  0
 27 53  1  0  0  0  0
 27 54  1  0  0  0  0
 27 55  1  0  0  0  0
 28 56  1  0  0  0  0
 28 57  1  0  0  0  0
 28 58  1  0  0  0  0
M  CHG  1  59  -1
M  END
$$$$
ZINC03834069
  -OEChem-08230709403D

 52 54  0     0  0  0  0  0  0999 V2000
    1.4129   -2.1287   -0.1054 C   0  0  0  0  0  0  0  0  0  0  0  0
    1.2486   -0.6389    0.0511 C   0  0  0  0  0  0  0  0  0  0  0  0
    2.3385    0.1491    0.3592 C   0  0  0  0  0  0  0  0  0  0  0  0
    2.1970    1.5227    0.5067 C   0  0  0  0  0  0  0  0  0  0  0  0
    0.9597    2.1028    0.3371 C   0  0  0  0  0  0  0  0  0  0  0  0
   -0.1365    1.3077    0.0296 C   0  0  0  0  0  0  0  0  0  0  0  0
    0.0055   -0.0573   -0.1129 C   0  0  0  0  0  0  0  0  0  0  0  0
   -1.1906   -0.9111   -0.4468 C   0  0  0  0  0  0  0  0  0  0  0  0
   -1.2729   -1.0985   -1.9398 C   0  0  0  0  0  0  0  0  0  0  0  0
   -1.8881   -0.1369   -2.7218 C   0  0  0  0  0  0  0  0  0  0  0  0
   -1.9627   -0.2998   -4.0895 C   0  0  0  0  0  0  0  0  0  0  0  0
   -1.4250   -1.4434   -4.6834 C   0  0  0  0  0  0  0  0  0  0  0  0
   -0.8104   -2.4124   -3.8878 C   0  0  0  0  0  0  0  0  0  0  0  0
   -0.7381   -2.2342   -2.5219 C   0  0  0  0  0  0  0  0  0  0  0  0
   -1.5058   -1.6272   -6.1470 C   0  0  0  0  0  0  0  0  0  0  0  0
   -1.0368   -2.6229   -6.6609 O   0  0  0  0  0  0  0  0  0  0  0  0
    0.7360    3.5869    0.4651 C   0  0  0  0  0  0  0  0  0  0  0  0
    1.8938    4.2415    1.2160 C   0  0  0  0  0  0  0  0  0  0  0  0
    3.2071    3.8025    0.5579 C   0  0  0  0  0  0  0  0  0  0  0  0
    3.4251    2.3208    0.8586 C   0  0  0  0  0  0  0  0  0  0  0  0
    3.7303    2.1466    2.3477 C   0  0  0  0  0  0  0  0  0  0  0  0
    4.6111    1.8096    0.0382 C   0  0  0  0  0  0  0  0  0  0  0  0
    0.6276    4.2031   -0.9311 C   0  0  0  0  0  0  0  0  0  0  0  0
   -0.5661    3.8370    1.2286 C   0  0  0  0  0  0  0  0  0  0  0  0
    1.5473   -2.3706   -1.1597 H   0  0  0  0  0  0  0  0  0  0  0  0
    2.2860   -2.4591    0.4573 H   0  0  0  0  0  0  0  0  0  0  0  0
    0.5243   -2.6340    0.2729 H   0  0  0  0  0  0  0  0  0  0  0  0
    3.3095   -0.3060    0.4870 H   0  0  0  0  0  0  0  0  0  0  0  0
   -1.1072    1.7620   -0.1035 H   0  0  0  0  0  0  0  0  0  0  0  0
   -1.0896   -1.8829    0.0364 H   0  0  0  0  0  0  0  0  0  0  0  0
   -2.0972   -0.4212   -0.0916 H   0  0  0  0  0  0  0  0  0  0  0  0
   -2.3071    0.7453   -2.2606 H   0  0  0  0  0  0  0  0  0  0  0  0
   -2.4391    0.4537   -4.6992 H   0  0  0  0  0  0  0  0  0  0  0  0
   -0.3922   -3.2991   -4.3409 H   0  0  0  0  0  0  0  0  0  0  0  0
   -0.2627   -2.9827   -1.9053 H   0  0  0  0  0  0  0  0  0  0  0  0
    1.8004    5.3261    1.1612 H   0  0  0  0  0  0  0  0  0  0  0  0
    1.8811    3.9243    2.2588 H   0  0  0  0  0  0  0  0  0  0  0  0
    3.1460    3.9537   -0.5198 H   0  0  0  0  0  0  0  0  0  0  0  0
    4.0339    4.3852    0.9640 H   0  0  0  0  0  0  0  0  0  0  0  0
    3.9061    1.0924    2.5617 H   0  0  0  0  0  0  0  0  0  0  0  0
    4.6187    2.7229    2.6063 H   0  0  0  0  0  0  0  0  0  0  0  0
    2.8837    2.5006    2.9359 H   0  0  0  0  0  0  0  0  0  0  0  0
    4.3939    1.9227   -1.0239 H   0  0  0  0  0  0  0  0  0  0  0  0
    5.5020    2.3848    0.2901 H   0  0  0  0  0  0  0  0  0  0  0  0
    4.7823    0.7571    0.2640 H   0  0  0  0  0  0  0  0  0  0  0  0
   -0.2100    3.7521   -1.4632 H   0  0  0  0  0  0  0  0  0  0  0  0
    0.4656    5.2774   -0.8425 H   0  0  0  0  0  0  0  0  0  0  0  0
    1.5498    4.0190   -1.4822 H   0  0  0  0  0  0  0  0  0  0  0  0
   -0.4969    3.3911    2.2208 H   0  0  0  0  0  0  0  0  0  0  0  0
   -0.7315    4.9102    1.3233 H   0  0  0  0  0  0  0  0  0  0  0  0
   -1.3976    3.3877    0.6856 H   0  0  0  0  0  0  0  0  0  0  0  0
   -2.0994   -0.6904   -6.9117 O   0  5  0  0  0  0  0  0  0  0  0  0
  1  2  1  0  0  0  0
  1 25  1  0  0  0  0
  1 26  1  0  0  0  0
  1 27  1  0  0  0  0
  2  7  2  0  0  0  0
  2  3  1  0  0  0  0
  3  4  2  0  0  0  0
  3 28  1  0  0  0  0
  4 20  1  0  0  0  0
  4  5  1  0  0  0  0
  5  6  2  0  0  0  0
  5 17  1  0  0  0  0
  6  7  1  0  0  0  0
  6 29  1  0  0  0  0
  7  8  1  0  0  0  0
  8  9  1  0  0  0  0
  8 30  1  0  0  0  0
  8 31  1  0  0  0  0
  9 14  2  0  0  0  0
  9 10  1  0  0  0  0
 10 11  2  0  0  0  0
 10 32  1  0  0  0  0
 11 12  1  0  0  0  0
 11 33  1  0  0  0  0
 12 13  2  0  0  0  0
 12 15  1  0  0  0  0
 13 14  1  0  0  0  0
 13 34  1  0  0  0  0
 14 35  1  0  0  0  0
 15 16  2  0  0  0  0
 15 52  1  0  0  0  0
 17 18  1  0  0  0  0
 17 23  1  0  0  0  0
 17 24  1  0  0  0  0
 18 19  1  0  0  0  0
 18 36  1  0  0  0  0
 18 37  1  0  0  0  0
 19 20  1  0  0  0  0
 19 38  1  0  0  0  0
 19 39  1  0  0  0  0
 20 21  1  0  0  0  0
 20 22  1  0  0  0  0
 21 40  1  0  0  0  0
 21 41  1  0  0  0  0
 21 42  1  0  0  0  0
 22 43  1  0  0  0  0
 22 44  1  0  0  0  0
 22 45  1  0  0  0  0
 23 46  1  0  0  0  0
 23 47  1  0  0  0  0
 23 48  1  0  0  0  0
 24 49  1  0  0  0  0
 24 50  1  0  0  0  0
 24 51  1  0  0  0  0
M  CHG  1  52  -1
M  END
$$$$
ZINC03834070
  -OEChem-08230709403D

 51 53  0     0  0  0  0  0  0999 V2000
    0.9542   -2.5407    0.0014 C   0  0  0  0  0  0  0  0  0  0  0  0
    1.1623   -1.0498    0.0728 C   0  0  0  0  0  0  0  0  0  0  0  0
    2.4094   -0.5374    0.3493 C   0  0  0  0  0  0  0  0  0  0  0  0
    2.6146    0.8363    0.4192 C   0  0  0  0  0  0  0  0  0  0  0  0
    1.5622    1.7010    0.2029 C   0  0  0  0  0  0  0  0  0  0  0  0
    0.3015    1.1970   -0.0737 C   0  0  0  0  0  0  0  0  0  0  0  0
    0.0905   -0.1797   -0.1410 C   0  0  0  0  0  0  0  0  0  0  0  0
   -1.2549   -0.7136   -0.4353 C   0  0  0  0  0  0  0  0  0  0  0  0
   -2.1123   -0.7087    0.4259 O   0  0  0  0  0  0  0  0  0  0  0  0
   -1.5587   -1.2541   -1.7785 C   0  0  0  0  0  0  0  0  0  0  0  0
   -0.6141   -1.1528   -2.8021 C   0  0  0  0  0  0  0  0  0  0  0  0
   -0.8948   -1.6618   -4.0513 C   0  0  0  0  0  0  0  0  0  0  0  0
   -2.1284   -2.2679   -4.2972 C   0  0  0  0  0  0  0  0  0  0  0  0
   -3.0751   -2.3641   -3.2755 C   0  0  0  0  0  0  0  0  0  0  0  0
   -2.7923   -1.8607   -2.0245 C   0  0  0  0  0  0  0  0  0  0  0  0
   -2.4321   -2.8084   -5.6402 C   0  0  0  0  0  0  0  0  0  0  0  0
   -3.5049   -3.3359   -5.8541 O   0  0  0  0  0  0  0  0  0  0  0  0
    1.7215    3.1985    0.2471 C   0  0  0  0  0  0  0  0  0  0  0  0
    3.0087    3.5804    0.9749 C   0  0  0  0  0  0  0  0  0  0  0  0
    4.1668    2.7882    0.3569 C   0  0  0  0  0  0  0  0  0  0  0  0
    4.0051    1.3190    0.7420 C   0  0  0  0  0  0  0  0  0  0  0  0
    4.2591    1.1586    2.2422 C   0  0  0  0  0  0  0  0  0  0  0  0
    5.0230    0.4804   -0.0335 C   0  0  0  0  0  0  0  0  0  0  0  0
    1.7693    3.7432   -1.1818 C   0  0  0  0  0  0  0  0  0  0  0  0
    0.5266    3.8116    0.9801 C   0  0  0  0  0  0  0  0  0  0  0  0
    1.0267   -2.8685   -1.0356 H   0  0  0  0  0  0  0  0  0  0  0  0
    1.7177   -3.0430    0.5954 H   0  0  0  0  0  0  0  0  0  0  0  0
   -0.0323   -2.7890    0.3929 H   0  0  0  0  0  0  0  0  0  0  0  0
    3.2382   -1.2100    0.5143 H   0  0  0  0  0  0  0  0  0  0  0  0
   -0.5221    1.8748   -0.2427 H   0  0  0  0  0  0  0  0  0  0  0  0
    0.3381   -0.6794   -2.6133 H   0  0  0  0  0  0  0  0  0  0  0  0
   -0.1623   -1.5881   -4.8415 H   0  0  0  0  0  0  0  0  0  0  0  0
   -4.0290   -2.8336   -3.4657 H   0  0  0  0  0  0  0  0  0  0  0  0
   -3.5245   -1.9355   -1.2342 H   0  0  0  0  0  0  0  0  0  0  0  0
    3.1922    4.6487    0.8602 H   0  0  0  0  0  0  0  0  0  0  0  0
    2.9188    3.3350    2.0331 H   0  0  0  0  0  0  0  0  0  0  0  0
    4.1424    2.8887   -0.7282 H   0  0  0  0  0  0  0  0  0  0  0  0
    5.1151    3.1660    0.7392 H   0  0  0  0  0  0  0  0  0  0  0  0
    4.1643    0.1079    2.5165 H   0  0  0  0  0  0  0  0  0  0  0  0
    5.2642    1.5068    2.4799 H   0  0  0  0  0  0  0  0  0  0  0  0
    3.5297    1.7467    2.7992 H   0  0  0  0  0  0  0  0  0  0  0  0
    4.8395    0.5838   -1.1030 H   0  0  0  0  0  0  0  0  0  0  0  0
    6.0304    0.8266    0.1974 H   0  0  0  0  0  0  0  0  0  0  0  0
    4.9242   -0.5668    0.2525 H   0  0  0  0  0  0  0  0  0  0  0  0
    0.8437    3.4894   -1.6985 H   0  0  0  0  0  0  0  0  0  0  0  0
    1.8846    4.8267   -1.1540 H   0  0  0  0  0  0  0  0  0  0  0  0
    2.6137    3.3014   -1.7110 H   0  0  0  0  0  0  0  0  0  0  0  0
    0.4830    3.4187    1.9959 H   0  0  0  0  0  0  0  0  0  0  0  0
    0.6383    4.8953    1.0142 H   0  0  0  0  0  0  0  0  0  0  0  0
   -0.3927    3.5575    0.4524 H   0  0  0  0  0  0  0  0  0  0  0  0
   -1.5189   -2.7156   -6.6259 O   0  5  0  0  0  0  0  0  0  0  0  0
  1  2  1  0  0  0  0
  1 26  1  0  0  0  0
  1 27  1  0  0  0  0
  1 28  1  0  0  0  0
  2  7  2  0  0  0  0
  2  3  1  0  0  0  0
  3  4  2  0  0  0  0
  3 29  1  0  0  0  0
  4 21  1  0  0  0  0
  4  5  1  0  0  0  0
  5  6  2  0  0  0  0
  5 18  1  0  0  0  0
  6  7  1  0  0  0  0
  6 30  1  0  0  0  0
  7  8  1  0  0  0  0
  8  9  2  0  0  0  0
  8 10  1  0  0  0  0
 10 15  2  0  0  0  0
 10 11  1  0  0  0  0
 11 12  2  0  0  0  0
 11 31  1  0  0  0  0
 12 13  1  0  0  0  0
 12 32  1  0  0  0  0
 13 14  2  0  0  0  0
 13 16  1  0  0  0  0
 14 15  1  0  0  0  0
 14 33  1  0  0  0  0
 15 34  1  0  0  0  0
 16 17  2  0  0  0  0
 16 51  1  0  0  0  0
 18 19  1  0  0  0  0
 18 24  1  0  0  0  0
 18 25  1  0  0  0  0
 19 20  1  0  0  0  0
 19 35  1  0  0  0  0
 19 36  1  0  0  0  0
 20 21  1  0  0  0  0
 20 37  1  0  0  0  0
 20 38  1  0  0  0  0
 21 22  1  0  0  0  0
 21 23  1  0  0  0  0
 22 39  1  0  0  0  0
 22 40  1  0  0  0  0
 22 41  1  0  0  0  0
 23 42  1  0  0  0  0
 23 43  1  0  0  0  0
 23 44  1  0  0  0  0
 24 45  1  0  0  0  0
 24 46  1  0  0  0  0
 24 47  1  0  0  0  0
 25 48  1  0  0  0  0
 25 49  1  0  0  0  0
 25 50  1  0  0  0  0
M  CHG  1  51  -1
M  END
$$$$
ZINC03834071
  -OEChem-08230709403D

 65 67  0     0  0  0  0  0  0999 V2000
    4.2591    4.7763   -3.3646 C   0  0  0  0  0  0  0  0  0  0  0  0
    2.9480    3.9897   -3.4216 C   0  0  0  0  0  0  0  0  0  0  0  0
    2.8084    3.1388   -2.1577 C   0  0  0  0  0  0  0  0  0  0  0  0
    1.4973    2.3522   -2.2147 C   0  0  0  0  0  0  0  0  0  0  0  0
    1.3670    1.5575   -1.0342 O   0  0  0  0  0  0  0  0  0  0  0  0
    0.1804    0.7862   -0.9873 N   0  0  0  0  0  0  0  0  0  0  0  0
   -0.0570    0.0186    0.0372 C   0  0  0  0  0  0  0  0  0  0  0  0
    0.9755   -0.1593    1.0844 C   0  0  0  0  0  0  0  0  0  0  0  0
    2.3254   -0.2039    0.7325 C   0  0  0  0  0  0  0  0  0  0  0  0
    3.2860   -0.3635    1.7058 C   0  0  0  0  0  0  0  0  0  0  0  0
    2.9085   -0.4925    3.0449 C   0  0  0  0  0  0  0  0  0  0  0  0
    1.5565   -0.4535    3.3957 C   0  0  0  0  0  0  0  0  0  0  0  0
    0.5975   -0.2881    2.4218 C   0  0  0  0  0  0  0  0  0  0  0  0
    3.9378   -0.6694    4.0890 C   0  0  0  0  0  0  0  0  0  0  0  0
    3.6093   -0.7811    5.2531 O   0  0  0  0  0  0  0  0  0  0  0  0
   -1.3599   -0.6769    0.1556 C   0  0  0  0  0  0  0  0  0  0  0  0
   -2.5316    0.0537    0.3295 C   0  0  0  0  0  0  0  0  0  0  0  0
   -3.7535   -0.5927    0.4350 C   0  0  0  0  0  0  0  0  0  0  0  0
   -3.8084   -1.9689    0.3739 C   0  0  0  0  0  0  0  0  0  0  0  0
   -2.6389   -2.7020    0.2090 C   0  0  0  0  0  0  0  0  0  0  0  0
   -1.4209   -2.0689    0.0996 C   0  0  0  0  0  0  0  0  0  0  0  0
   -0.1609   -2.8759   -0.0803 C   0  0  0  0  0  0  0  0  0  0  0  0
   -5.1038   -2.7324    0.4709 C   0  0  0  0  0  0  0  0  0  0  0  0
   -6.2017   -1.8547    1.0680 C   0  0  0  0  0  0  0  0  0  0  0  0
   -6.2426   -0.5343    0.2898 C   0  0  0  0  0  0  0  0  0  0  0  0
   -4.9813    0.2599    0.6227 C   0  0  0  0  0  0  0  0  0  0  0  0
   -5.0509    0.7312    2.0766 C   0  0  0  0  0  0  0  0  0  0  0  0
   -4.8948    1.4786   -0.2983 C   0  0  0  0  0  0  0  0  0  0  0  0
   -5.5267   -3.1878   -0.9272 C   0  0  0  0  0  0  0  0  0  0  0  0
   -4.9000   -3.9605    1.3603 C   0  0  0  0  0  0  0  0  0  0  0  0
    4.3585    5.3825   -4.2650 H   0  0  0  0  0  0  0  0  0  0  0  0
    4.2560    5.4248   -2.4885 H   0  0  0  0  0  0  0  0  0  0  0  0
    5.0968    4.0820   -3.2998 H   0  0  0  0  0  0  0  0  0  0  0  0
    2.9511    3.3412   -4.2977 H   0  0  0  0  0  0  0  0  0  0  0  0
    2.1103    4.6840   -3.4865 H   0  0  0  0  0  0  0  0  0  0  0  0
    2.8053    3.7873   -1.2816 H   0  0  0  0  0  0  0  0  0  0  0  0
    3.6462    2.4445   -2.0928 H   0  0  0  0  0  0  0  0  0  0  0  0
    1.5005    1.7037   -3.0908 H   0  0  0  0  0  0  0  0  0  0  0  0
    0.6596    3.0466   -2.2795 H   0  0  0  0  0  0  0  0  0  0  0  0
    2.6168   -0.1090   -0.3031 H   0  0  0  0  0  0  0  0  0  0  0  0
    4.3308   -0.3935    1.4338 H   0  0  0  0  0  0  0  0  0  0  0  0
    1.2639   -0.5527    4.4305 H   0  0  0  0  0  0  0  0  0  0  0  0
   -0.4475   -0.2576    2.6928 H   0  0  0  0  0  0  0  0  0  0  0  0
   -2.4893    1.1318    0.3779 H   0  0  0  0  0  0  0  0  0  0  0  0
   -2.6861   -3.7801    0.1659 H   0  0  0  0  0  0  0  0  0  0  0  0
    0.3138   -3.0291    0.8889 H   0  0  0  0  0  0  0  0  0  0  0  0
   -0.4080   -3.8419   -0.5206 H   0  0  0  0  0  0  0  0  0  0  0  0
    0.5226   -2.3404   -0.7391 H   0  0  0  0  0  0  0  0  0  0  0  0
   -5.9827   -1.6558    2.1171 H   0  0  0  0  0  0  0  0  0  0  0  0
   -7.1634   -2.3607    0.9834 H   0  0  0  0  0  0  0  0  0  0  0  0
   -7.1239    0.0368    0.5818 H   0  0  0  0  0  0  0  0  0  0  0  0
   -6.2759   -0.7391   -0.7803 H   0  0  0  0  0  0  0  0  0  0  0  0
   -4.1612    1.3151    2.3122 H   0  0  0  0  0  0  0  0  0  0  0  0
   -5.9382    1.3486    2.2163 H   0  0  0  0  0  0  0  0  0  0  0  0
   -5.1028   -0.1344    2.7370 H   0  0  0  0  0  0  0  0  0  0  0  0
   -4.8352    1.1472   -1.3349 H   0  0  0  0  0  0  0  0  0  0  0  0
   -5.7817    2.0982   -0.1653 H   0  0  0  0  0  0  0  0  0  0  0  0
   -4.0059    2.0588   -0.0506 H   0  0  0  0  0  0  0  0  0  0  0  0
   -4.7542   -3.8309   -1.3490 H   0  0  0  0  0  0  0  0  0  0  0  0
   -6.4637   -3.7407   -0.8613 H   0  0  0  0  0  0  0  0  0  0  0  0
   -5.6633   -2.3162   -1.5674 H   0  0  0  0  0  0  0  0  0  0  0  0
   -4.5889   -3.6412    2.3550 H   0  0  0  0  0  0  0  0  0  0  0  0
   -5.8353   -4.5157    1.4330 H   0  0  0  0  0  0  0  0  0  0  0  0
   -4.1309   -4.5996    0.9267 H   0  0  0  0  0  0  0  0  0  0  0  0
    5.2413   -0.7069    3.7504 O   0  5  0  0  0  0  0  0  0  0  0  0
  1  2  1  0  0  0  0
  1 31  1  0  0  0  0
  1 32  1  0  0  0  0
  1 33  1  0  0  0  0
  2  3  1  0  0  0  0
  2 34  1  0  0  0  0
  2 35  1  0  0  0  0
  3  4  1  0  0  0  0
  3 36  1  0  0  0  0
  3 37  1  0  0  0  0
  4  5  1  0  0  0  0
  4 38  1  0  0  0  0
  4 39  1  0  0  0  0
  5  6  1  0  0  0  0
  6  7  2  0  0  0  0
  7  8  1  0  0  0  0
  7 16  1  0  0  0  0
  8 13  2  0  0  0  0
  8  9  1  0  0  0  0
  9 10  2  0  0  0  0
  9 40  1  0  0  0  0
 10 11  1  0  0  0  0
 10 41  1  0  0  0  0
 11 12  2  0  0  0  0
 11 14  1  0  0  0  0
 12 13  1  0  0  0  0
 12 42  1  0  0  0  0
 13 43  1  0  0  0  0
 14 15  2  0  0  0  0
 14 65  1  0  0  0  0
 16 21  2  0  0  0  0
 16 17  1  0  0  0  0
 17 18  2  0  0  0  0
 17 44  1  0  0  0  0
 18 26  1  0  0  0  0
 18 19  1  0  0  0  0
 19 20  2  0  0  0  0
 19 23  1  0  0  0  0
 20 21  1  0  0  0  0
 20 45  1  0  0  0  0
 21 22  1  0  0  0  0
 22 46  1  0  0  0  0
 22 47  1  0  0  0  0
 22 48  1  0  0  0  0
 23 24  1  0  0  0  0
 23 29  1  0  0  0  0
 23 30  1  0  0  0  0
 24 25  1  0  0  0  0
 24 49  1  0  0  0  0
 24 50  1  0  0  0  0
 25 26  1  0  0  0  0
 25 51  1  0  0  0  0
 25 52  1  0  0  0  0
 26 27  1  0  0  0  0
 26 28  1  0  0  0  0
 27 53  1  0  0  0  0
 27 54  1  0  0  0  0
 27 55  1  0  0  0  0
 28 56  1  0  0  0  0
 28 57  1  0  0  0  0
 28 58  1  0  0  0  0
 29 59  1  0  0  0  0
 29 60  1  0  0  0  0
 29 61  1  0  0  0  0
 30 62  1  0  0  0  0
 30 63  1  0  0  0  0
 30 64  1  0  0  0  0
M  CHG  1  65  -1
M  END
$$$$
ZINC03834073
  -OEChem-08230709403D

 62 64  0     0  0  0  0  0  0999 V2000
   -0.1611   -2.8762   -0.0797 C   0  0  0  0  0  0  0  0  0  0  0  0
   -1.4208   -2.0688    0.0994 C   0  0  0  0  0  0  0  0  0  0  0  0
   -2.6391   -2.7014    0.2085 C   0  0  0  0  0  0  0  0  0  0  0  0
   -3.8084   -1.9678    0.3727 C   0  0  0  0  0  0  0  0  0  0  0  0
   -3.7530   -0.5917    0.4336 C   0  0  0  0  0  0  0  0  0  0  0  0
   -2.5309    0.0543    0.3284 C   0  0  0  0  0  0  0  0  0  0  0  0
   -1.3593   -0.6768    0.1552 C   0  0  0  0  0  0  0  0  0  0  0  0
   -0.0561    0.0183    0.0372 C   0  0  0  0  0  0  0  0  0  0  0  0
    0.1820    0.7855   -0.9874 N   0  0  0  0  0  0  0  0  0  0  0  0
    1.3689    1.5564   -1.0339 O   0  0  0  0  0  0  0  0  0  0  0  0
    1.5000    2.3509   -2.2145 C   0  0  0  0  0  0  0  0  0  0  0  0
    2.8113    3.1370   -2.1571 C   0  0  0  0  0  0  0  0  0  0  0  0
    0.9759   -0.1599    1.0848 C   0  0  0  0  0  0  0  0  0  0  0  0
    2.3259   -0.2056    0.7334 C   0  0  0  0  0  0  0  0  0  0  0  0
    3.2860   -0.3653    1.7072 C   0  0  0  0  0  0  0  0  0  0  0  0
    2.9079   -0.4933    3.0462 C   0  0  0  0  0  0  0  0  0  0  0  0
    1.5558   -0.4532    3.3965 C   0  0  0  0  0  0  0  0  0  0  0  0
    0.5973   -0.2876    2.4222 C   0  0  0  0  0  0  0  0  0  0  0  0
    3.9368   -0.6704    4.0908 C   0  0  0  0  0  0  0  0  0  0  0  0
    3.6077   -0.7812    5.2549 O   0  0  0  0  0  0  0  0  0  0  0  0
   -4.9806    0.2614    0.6205 C   0  0  0  0  0  0  0  0  0  0  0  0
   -6.2421   -0.5324    0.2873 C   0  0  0  0  0  0  0  0  0  0  0  0
   -6.2019   -1.8527    1.0658 C   0  0  0  0  0  0  0  0  0  0  0  0
   -5.1041   -2.7308    0.4693 C   0  0  0  0  0  0  0  0  0  0  0  0
   -5.5265   -3.1864   -0.9289 C   0  0  0  0  0  0  0  0  0  0  0  0
   -4.9012   -3.9588    1.3591 C   0  0  0  0  0  0  0  0  0  0  0  0
   -5.0507    0.7331    2.0743 C   0  0  0  0  0  0  0  0  0  0  0  0
   -4.8933    1.4799   -0.3007 C   0  0  0  0  0  0  0  0  0  0  0  0
    0.3132   -3.0294    0.8897 H   0  0  0  0  0  0  0  0  0  0  0  0
   -0.4082   -3.8423   -0.5199 H   0  0  0  0  0  0  0  0  0  0  0  0
    0.5229   -2.3411   -0.7384 H   0  0  0  0  0  0  0  0  0  0  0  0
   -2.6866   -3.7795    0.1655 H   0  0  0  0  0  0  0  0  0  0  0  0
   -2.4882    1.1324    0.3766 H   0  0  0  0  0  0  0  0  0  0  0  0
    1.5032    1.7022   -3.0904 H   0  0  0  0  0  0  0  0  0  0  0  0
    0.6625    3.0455   -2.2798 H   0  0  0  0  0  0  0  0  0  0  0  0
    2.8698    3.8090   -3.0133 H   0  0  0  0  0  0  0  0  0  0  0  0
    2.8464    3.7184   -1.2358 H   0  0  0  0  0  0  0  0  0  0  0  0
    3.8986    1.6071   -3.0032 H   0  0  0  0  0  0  0  0  0  0  0  0
    4.8226    2.6976   -2.1530 H   0  0  0  0  0  0  0  0  0  0  0  0
    2.6176   -0.1114   -0.3021 H   0  0  0  0  0  0  0  0  0  0  0  0
    4.3308   -0.3962    1.4356 H   0  0  0  0  0  0  0  0  0  0  0  0
    1.2628   -0.5517    4.4313 H   0  0  0  0  0  0  0  0  0  0  0  0
   -0.4478   -0.2563    2.6928 H   0  0  0  0  0  0  0  0  0  0  0  0
   -7.1233    0.0391    0.5788 H   0  0  0  0  0  0  0  0  0  0  0  0
   -6.2749   -0.7374   -0.7828 H   0  0  0  0  0  0  0  0  0  0  0  0
   -5.9833   -1.6536    2.1149 H   0  0  0  0  0  0  0  0  0  0  0  0
   -7.1638   -2.3583    0.9809 H   0  0  0  0  0  0  0  0  0  0  0  0
   -4.7542   -3.8299   -1.3502 H   0  0  0  0  0  0  0  0  0  0  0  0
   -6.4638   -3.7390   -0.8632 H   0  0  0  0  0  0  0  0  0  0  0  0
   -5.6626   -2.3149   -1.5693 H   0  0  0  0  0  0  0  0  0  0  0  0
   -4.5903   -3.6394    2.3538 H   0  0  0  0  0  0  0  0  0  0  0  0
   -5.8366   -4.5137    1.4314 H   0  0  0  0  0  0  0  0  0  0  0  0
   -4.1320   -4.5983    0.9259 H   0  0  0  0  0  0  0  0  0  0  0  0
   -4.1608    1.3167    2.3102 H   0  0  0  0  0  0  0  0  0  0  0  0
   -5.9378    1.3508    2.2135 H   0  0  0  0  0  0  0  0  0  0  0  0
   -5.1032   -0.1323    2.7349 H   0  0  0  0  0  0  0  0  0  0  0  0
   -4.8333    1.1482   -1.3372 H   0  0  0  0  0  0  0  0  0  0  0  0
   -5.7800    2.0998   -0.1682 H   0  0  0  0  0  0  0  0  0  0  0  0
   -4.0042    2.0598   -0.0528 H   0  0  0  0  0  0  0  0  0  0  0  0
    3.9399    2.1895   -2.1685 N   0  3  0  0  0  0  0  0  0  0  0  0
    3.8845    1.5887   -1.3377 H   0  0  0  0  0  0  0  0  0  0  0  0
    5.2403   -0.7090    3.7526 O   0  5  0  0  0  0  0  0  0  0  0  0
  1  2  1  0  0  0  0
  1 29  1  0  0  0  0
  1 30  1  0  0  0  0
  1 31  1  0  0  0  0
  2  7  2  0  0  0  0
  2  3  1  0  0  0  0
  3  4  2  0  0  0  0
  3 32  1  0  0  0  0
  4 24  1  0  0  0  0
  4  5  1  0  0  0  0
  5  6  2  0  0  0  0
  5 21  1  0  0  0  0
  6  7  1  0  0  0  0
  6 33  1  0  0  0  0
  7  8  1  0  0  0  0
  8  9  2  0  0  0  0
  8 13  1  0  0  0  0
  9 10  1  0  0  0  0
 10 11  1  0  0  0  0
 11 12  1  0  0  0  0
 11 34  1  0  0  0  0
 11 35  1  0  0  0  0
 12 36  1  0  0  0  0
 12 37  1  0  0  0  0
 12 60  1  0  0  0  0
 13 18  2  0  0  0  0
 13 14  1  0  0  0  0
 14 15  2  0  0  0  0
 14 40  1  0  0  0  0
 15 16  1  0  0  0  0
 15 41  1  0  0  0  0
 16 17  2  0  0  0  0
 16 19  1  0  0  0  0
 17 18  1  0  0  0  0
 17 42  1  0  0  0  0
 18 43  1  0  0  0  0
 19 20  2  0  0  0  0
 19 62  1  0  0  0  0
 21 22  1  0  0  0  0
 21 27  1  0  0  0  0
 21 28  1  0  0  0  0
 22 23  1  0  0  0  0
 22 44  1  0  0  0  0
 22 45  1  0  0  0  0
 23 24  1  0  0  0  0
 23 46  1  0  0  0  0
 23 47  1  0  0  0  0
 24 25  1  0  0  0  0
 24 26  1  0  0  0  0
 25 48  1  0  0  0  0
 25 49  1  0  0  0  0
 25 50  1  0  0  0  0
 26 51  1  0  0  0  0
 26 52  1  0  0  0  0
 26 53  1  0  0  0  0
 27 54  1  0  0  0  0
 27 55  1  0  0  0  0
 27 56  1  0  0  0  0
 28 57  1  0  0  0  0
 28 58  1  0  0  0  0
 28 59  1  0  0  0  0
 38 60  1  0  0  0  0
 39 60  1  0  0  0  0
 60 61  1  0  0  0  0
M  CHG  2  60   1  62  -1
M  END
$$$$
ZINC03834074
  -OEChem-08230709403D

 58 60  0     0  0  0  0  0  0999 V2000
   -0.1612   -2.8772   -0.0776 C   0  0  0  0  0  0  0  0  0  0  0  0
   -1.4204   -2.0684    0.0998 C   0  0  0  0  0  0  0  0  0  0  0  0
   -2.6393   -2.6998    0.2083 C   0  0  0  0  0  0  0  0  0  0  0  0
   -3.8081   -1.9650    0.3710 C   0  0  0  0  0  0  0  0  0  0  0  0
   -3.7515   -0.5889    0.4307 C   0  0  0  0  0  0  0  0  0  0  0  0
   -2.5287    0.0559    0.3259 C   0  0  0  0  0  0  0  0  0  0  0  0
   -1.3576   -0.6764    0.1544 C   0  0  0  0  0  0  0  0  0  0  0  0
   -0.0537    0.0173    0.0368 C   0  0  0  0  0  0  0  0  0  0  0  0
    0.1859    0.7835   -0.9881 N   0  0  0  0  0  0  0  0  0  0  0  0
    1.3735    1.5533   -1.0343 O   0  0  0  0  0  0  0  0  0  0  0  0
    1.5064    2.3467   -2.2154 C   0  0  0  0  0  0  0  0  0  0  0  0
    2.7986    3.1199   -2.1585 C   0  0  0  0  0  0  0  0  0  0  0  0
    3.5308    3.0034   -1.2044 O   0  0  0  0  0  0  0  0  0  0  0  0
    0.9773   -0.1609    1.0855 C   0  0  0  0  0  0  0  0  0  0  0  0
    2.3274   -0.2094    0.7351 C   0  0  0  0  0  0  0  0  0  0  0  0
    3.2866   -0.3693    1.7097 C   0  0  0  0  0  0  0  0  0  0  0  0
    2.9074   -0.4946    3.0487 C   0  0  0  0  0  0  0  0  0  0  0  0
    1.5552   -0.4517    3.3980 C   0  0  0  0  0  0  0  0  0  0  0  0
    0.5976   -0.2860    2.4227 C   0  0  0  0  0  0  0  0  0  0  0  0
    3.9353   -0.6717    4.0942 C   0  0  0  0  0  0  0  0  0  0  0  0
    3.6052   -0.7802    5.2583 O   0  0  0  0  0  0  0  0  0  0  0  0
   -4.9785    0.2655    0.6158 C   0  0  0  0  0  0  0  0  0  0  0  0
   -6.2404   -0.5274    0.2822 C   0  0  0  0  0  0  0  0  0  0  0  0
   -6.2021   -1.8470    1.0619 C   0  0  0  0  0  0  0  0  0  0  0  0
   -5.1046   -2.7267    0.4671 C   0  0  0  0  0  0  0  0  0  0  0  0
   -5.5263   -3.1831   -0.9310 C   0  0  0  0  0  0  0  0  0  0  0  0
   -4.9035   -3.9541    1.3582 C   0  0  0  0  0  0  0  0  0  0  0  0
   -5.0493    0.7385    2.0691 C   0  0  0  0  0  0  0  0  0  0  0  0
   -4.8892    1.4831   -0.3064 C   0  0  0  0  0  0  0  0  0  0  0  0
    0.3121   -3.0300    0.8923 H   0  0  0  0  0  0  0  0  0  0  0  0
   -0.4089   -3.8434   -0.5172 H   0  0  0  0  0  0  0  0  0  0  0  0
    0.5239   -2.3433   -0.7361 H   0  0  0  0  0  0  0  0  0  0  0  0
   -2.6878   -3.7779    0.1663 H   0  0  0  0  0  0  0  0  0  0  0  0
   -2.4850    1.1340    0.3733 H   0  0  0  0  0  0  0  0  0  0  0  0
    1.5097    1.6973   -3.0909 H   0  0  0  0  0  0  0  0  0  0  0  0
    0.6696    3.0420   -2.2820 H   0  0  0  0  0  0  0  0  0  0  0  0
    2.6201   -0.1174   -0.3004 H   0  0  0  0  0  0  0  0  0  0  0  0
    4.3316   -0.4023    1.4389 H   0  0  0  0  0  0  0  0  0  0  0  0
    1.2612   -0.5481    4.4328 H   0  0  0  0  0  0  0  0  0  0  0  0
   -0.4476   -0.2524    2.6926 H   0  0  0  0  0  0  0  0  0  0  0  0
   -7.1213    0.0451    0.5725 H   0  0  0  0  0  0  0  0  0  0  0  0
   -6.2725   -0.7333   -0.7877 H   0  0  0  0  0  0  0  0  0  0  0  0
   -5.9842   -1.6473    2.1111 H   0  0  0  0  0  0  0  0  0  0  0  0
   -7.1644   -2.3518    0.9766 H   0  0  0  0  0  0  0  0  0  0  0  0
   -4.7541   -3.8277   -1.3511 H   0  0  0  0  0  0  0  0  0  0  0  0
   -6.4641   -3.7348   -0.8657 H   0  0  0  0  0  0  0  0  0  0  0  0
   -5.6610   -2.3121   -1.5723 H   0  0  0  0  0  0  0  0  0  0  0  0
   -4.5932   -3.6341    2.3528 H   0  0  0  0  0  0  0  0  0  0  0  0
   -5.8396   -4.5080    1.4302 H   0  0  0  0  0  0  0  0  0  0  0  0
   -4.1346   -4.5947    0.9262 H   0  0  0  0  0  0  0  0  0  0  0  0
   -4.1591    1.3216    2.3052 H   0  0  0  0  0  0  0  0  0  0  0  0
   -5.9360    1.3572    2.2070 H   0  0  0  0  0  0  0  0  0  0  0  0
   -5.1032   -0.1263    2.7304 H   0  0  0  0  0  0  0  0  0  0  0  0
   -4.8287    1.1505   -1.3426 H   0  0  0  0  0  0  0  0  0  0  0  0
   -5.7755    2.1040   -0.1753 H   0  0  0  0  0  0  0  0  0  0  0  0
   -3.9999    2.0624   -0.0582 H   0  0  0  0  0  0  0  0  0  0  0  0
    3.1363    3.9379   -3.1677 O   0  5  0  0  0  0  0  0  0  0  0  0
    5.2390   -0.7131    3.7570 O   0  5  0  0  0  0  0  0  0  0  0  0
  1  2  1  0  0  0  0
  1 30  1  0  0  0  0
  1 31  1  0  0  0  0
  1 32  1  0  0  0  0
  2  7  2  0  0  0  0
  2  3  1  0  0  0  0
  3  4  2  0  0  0  0
  3 33  1  0  0  0  0
  4 25  1  0  0  0  0
  4  5  1  0  0  0  0
  5  6  2  0  0  0  0
  5 22  1  0  0  0  0
  6  7  1  0  0  0  0
  6 34  1  0  0  0  0
  7  8  1  0  0  0  0
  8  9  2  0  0  0  0
  8 14  1  0  0  0  0
  9 10  1  0  0  0  0
 10 11  1  0  0  0  0
 11 12  1  0  0  0  0
 11 35  1  0  0  0  0
 11 36  1  0  0  0  0
 12 13  2  0  0  0  0
 12 57  1  0  0  0  0
 14 19  2  0  0  0  0
 14 15  1  0  0  0  0
 15 16  2  0  0  0  0
 15 37  1  0  0  0  0
 16 17  1  0  0  0  0
 16 38  1  0  0  0  0
 17 18  2  0  0  0  0
 17 20  1  0  0  0  0
 18 19  1  0  0  0  0
 18 39  1  0  0  0  0
 19 40  1  0  0  0  0
 20 21  2  0  0  0  0
 20 58  1  0  0  0  0
 22 23  1  0  0  0  0
 22 28  1  0  0  0  0
 22 29  1  0  0  0  0
 23 24  1  0  0  0  0
 23 41  1  0  0  0  0
 23 42  1  0  0  0  0
 24 25  1  0  0  0  0
 24 43  1  0  0  0  0
 24 44  1  0  0  0  0
 25 26  1  0  0  0  0
 25 27  1  0  0  0  0
 26 45  1  0  0  0  0
 26 46  1  0  0  0  0
 26 47  1  0  0  0  0
 27 48  1  0  0  0  0
 27 49  1  0  0  0  0
 27 50  1  0  0  0  0
 28 51  1  0  0  0  0
 28 52  1  0  0  0  0
 28 53  1  0  0  0  0
 29 54  1  0  0  0  0
 29 55  1  0  0  0  0
 29 56  1  0  0  0  0
M  CHG  2  57  -1  58  -1
M  END
$$$$
ZINC03834076
  -OEChem-08230709403D

 50 52  0     0  0  0  0  0  0999 V2000
   -3.0391   -4.3686    3.5668 C   0  0  0  0  0  0  0  0  0  0  0  0
   -3.7231   -3.7147    2.3645 C   0  0  0  0  0  0  0  0  0  0  0  0
   -5.0120   -3.0374    2.8253 C   0  0  0  0  0  0  0  0  0  0  0  0
   -5.5680   -2.2117    1.6592 C   0  0  0  0  0  0  0  0  0  0  0  0
   -4.6435   -1.0177    1.4309 C   0  0  0  0  0  0  0  0  0  0  0  0
   -3.2116   -1.4710    1.3122 C   0  0  0  0  0  0  0  0  0  0  0  0
   -2.7869   -2.7083    1.7471 C   0  0  0  0  0  0  0  0  0  0  0  0
   -1.4497   -3.0660    1.6188 C   0  0  0  0  0  0  0  0  0  0  0  0
   -0.5409   -2.2007    1.0517 C   0  0  0  0  0  0  0  0  0  0  0  0
   -0.9645   -0.9471    0.6117 C   0  0  0  0  0  0  0  0  0  0  0  0
   -2.3034   -0.5908    0.7445 C   0  0  0  0  0  0  0  0  0  0  0  0
    0.0021   -0.0041    0.0020 C   0  0  0  0  0  0  0  0  0  0  0  0
   -0.4234    1.0873   -0.5664 N   0  0  0  0  0  0  0  0  0  0  0  0
    0.5032    2.0602   -1.0135 O   0  0  0  0  0  0  0  0  0  0  0  0
    1.4524   -0.3030    0.0391 C   0  0  0  0  0  0  0  0  0  0  0  0
    2.2676    0.0628   -1.0332 C   0  0  0  0  0  0  0  0  0  0  0  0
    3.6167   -0.2095   -0.9970 C   0  0  0  0  0  0  0  0  0  0  0  0
    4.1679   -0.8621    0.1088 C   0  0  0  0  0  0  0  0  0  0  0  0
    3.3501   -1.2330    1.1793 C   0  0  0  0  0  0  0  0  0  0  0  0
    2.0021   -0.9553    1.1439 C   0  0  0  0  0  0  0  0  0  0  0  0
    5.6140   -1.1592    0.1462 C   0  0  0  0  0  0  0  0  0  0  0  0
    6.0929   -1.7262    1.1079 O   0  0  0  0  0  0  0  0  0  0  0  0
   -4.7700   -0.0493    2.6087 C   0  0  0  0  0  0  0  0  0  0  0  0
   -5.0540   -0.3008    0.1431 C   0  0  0  0  0  0  0  0  0  0  0  0
   -4.0604   -4.7899    1.3296 C   0  0  0  0  0  0  0  0  0  0  0  0
   -3.7059   -5.1116    4.0043 H   0  0  0  0  0  0  0  0  0  0  0  0
   -2.1185   -4.8533    3.2418 H   0  0  0  0  0  0  0  0  0  0  0  0
   -2.8057   -3.6069    4.3107 H   0  0  0  0  0  0  0  0  0  0  0  0
   -4.8007   -2.3827    3.6708 H   0  0  0  0  0  0  0  0  0  0  0  0
   -5.7398   -3.7936    3.1196 H   0  0  0  0  0  0  0  0  0  0  0  0
   -6.5698   -1.8588    1.9039 H   0  0  0  0  0  0  0  0  0  0  0  0
   -5.6046   -2.8251    0.7589 H   0  0  0  0  0  0  0  0  0  0  0  0
   -1.1207   -4.0351    1.9640 H   0  0  0  0  0  0  0  0  0  0  0  0
    0.4949   -2.4897    0.9519 H   0  0  0  0  0  0  0  0  0  0  0  0
   -2.6371    0.3778    0.4027 H   0  0  0  0  0  0  0  0  0  0  0  0
    0.0935    2.8351   -1.4220 H   0  0  0  0  0  0  0  0  0  0  0  0
    1.8407    0.5636   -1.8896 H   0  0  0  0  0  0  0  0  0  0  0  0
    4.2480    0.0771   -1.8250 H   0  0  0  0  0  0  0  0  0  0  0  0
    3.7754   -1.7371    2.0346 H   0  0  0  0  0  0  0  0  0  0  0  0
    1.3699   -1.2419    1.9712 H   0  0  0  0  0  0  0  0  0  0  0  0
   -4.1263    0.8140    2.4400 H   0  0  0  0  0  0  0  0  0  0  0  0
   -5.8049    0.2811    2.6978 H   0  0  0  0  0  0  0  0  0  0  0  0
   -4.4690   -0.5530    3.5272 H   0  0  0  0  0  0  0  0  0  0  0  0
   -4.9559   -0.9842   -0.7003 H   0  0  0  0  0  0  0  0  0  0  0  0
   -6.0897    0.0289    0.2251 H   0  0  0  0  0  0  0  0  0  0  0  0
   -4.4088    0.5638   -0.0129 H   0  0  0  0  0  0  0  0  0  0  0  0
   -4.5566   -4.3292    0.4755 H   0  0  0  0  0  0  0  0  0  0  0  0
   -3.1427   -5.2758    0.9982 H   0  0  0  0  0  0  0  0  0  0  0  0
   -4.7223   -5.5309    1.7781 H   0  0  0  0  0  0  0  0  0  0  0  0
    6.4022   -0.8015   -0.8862 O   0  5  0  0  0  0  0  0  0  0  0  0
  1  2  1  0  0  0  0
  1 26  1  0  0  0  0
  1 27  1  0  0  0  0
  1 28  1  0  0  0  0
  2  7  1  0  0  0  0
  2  3  1  0  0  0  0
  2 25  1  0  0  0  0
  3  4  1  0  0  0  0
  3 29  1  0  0  0  0
  3 30  1  0  0  0  0
  4  5  1  0  0  0  0
  4 31  1  0  0  0  0
  4 32  1  0  0  0  0
  5  6  1  0  0  0  0
  5 23  1  0  0  0  0
  5 24  1  0  0  0  0
  6 11  2  0  0  0  0
  6  7  1  0  0  0  0
  7  8  2  0  0  0  0
  8  9  1  0  0  0  0
  8 33  1  0  0  0  0
  9 10  2  0  0  0  0
  9 34  1  0  0  0  0
 10 11  1  0  0  0  0
 10 12  1  0  0  0  0
 11 35  1  0  0  0  0
 12 13  2  0  0  0  0
 12 15  1  0  0  0  0
 13 14  1  0  0  0  0
 14 36  1  0  0  0  0
 15 20  2  0  0  0  0
 15 16  1  0  0  0  0
 16 17  2  0  0  0  0
 16 37  1  0  0  0  0
 17 18  1  0  0  0  0
 17 38  1  0  0  0  0
 18 19  2  0  0  0  0
 18 21  1  0  0  0  0
 19 20  1  0  0  0  0
 19 39  1  0  0  0  0
 20 40  1  0  0  0  0
 21 22  2  0  0  0  0
 21 50  1  0  0  0  0
 23 41  1  0  0  0  0
 23 42  1  0  0  0  0
 23 43  1  0  0  0  0
 24 44  1  0  0  0  0
 24 45  1  0  0  0  0
 24 46  1  0  0  0  0
 25 47  1  0  0  0  0
 25 48  1  0  0  0  0
 25 49  1  0  0  0  0
M  CHG  1  50  -1
M  END
$$$$
ZINC04147417
  -OEChem-08230709403D

 58 59  0     0  0  0  0  0  0999 V2000
   -0.8377    3.3362   -0.0680 C   0  0  0  0  0  0  0  0  0  0  0  0
   -1.0468    1.8473    0.0342 C   0  0  0  0  0  0  0  0  0  0  0  0
   -0.0122    0.9956   -0.2120 C   0  0  0  0  0  0  0  0  0  0  0  0
    1.2089    1.4950   -0.7110 C   0  0  0  0  0  0  0  0  0  0  0  0
    1.3037    2.6670   -1.0269 O   0  0  0  0  0  0  0  0  0  0  0  0
   -2.3083    1.3375    0.3833 C   0  0  0  0  0  0  0  0  0  0  0  0
   -3.3430    2.1892    0.6295 C   0  0  0  0  0  0  0  0  0  0  0  0
   -4.6073    1.6783    0.9794 C   0  0  0  0  0  0  0  0  0  0  0  0
   -5.6369    2.5258    1.2244 C   0  0  0  0  0  0  0  0  0  0  0  0
   -5.4278    4.0147    1.1222 C   0  0  0  0  0  0  0  0  0  0  0  0
   -6.9551    1.9931    1.5892 C   0  0  0  0  0  0  0  0  0  0  0  0
   -7.4037    2.0630    2.9104 C   0  0  0  0  0  0  0  0  0  0  0  0
   -8.6468    1.5622    3.2576 C   0  0  0  0  0  0  0  0  0  0  0  0
   -9.4557    0.9942    2.2930 C   0  0  0  0  0  0  0  0  0  0  0  0
   -9.0189    0.9167    0.9769 C   0  0  0  0  0  0  0  0  0  0  0  0
   -7.7813    1.4127    0.6122 C   0  0  0  0  0  0  0  0  0  0  0  0
   -7.3657    1.3351   -0.6774 O   0  0  0  0  0  0  0  0  0  0  0  0
   -8.2619    0.7315   -1.6126 C   0  0  0  0  0  0  0  0  0  0  0  0
  -10.8250    0.4478    2.6056 C   0  0  0  0  0  0  0  0  0  0  0  0
  -10.9760    0.2022    4.1052 C   0  0  0  0  0  0  0  0  0  0  0  0
  -10.5669    1.4796    4.8480 C   0  0  0  0  0  0  0  0  0  0  0  0
   -9.0571    1.6582    4.7044 C   0  0  0  0  0  0  0  0  0  0  0  0
   -8.3419    0.5680    5.5049 C   0  0  0  0  0  0  0  0  0  0  0  0
   -8.6571    3.0295    5.2522 C   0  0  0  0  0  0  0  0  0  0  0  0
  -11.8852    1.4523    2.1496 C   0  0  0  0  0  0  0  0  0  0  0  0
  -11.0252   -0.8708    1.8558 C   0  0  0  0  0  0  0  0  0  0  0  0
   -0.9554    3.6493   -1.1054 H   0  0  0  0  0  0  0  0  0  0  0  0
   -1.5725    3.8497    0.5521 H   0  0  0  0  0  0  0  0  0  0  0  0
    0.1660    3.5866    0.2754 H   0  0  0  0  0  0  0  0  0  0  0  0
   -0.1285   -0.0624   -0.0293 H   0  0  0  0  0  0  0  0  0  0  0  0
   -2.4581    0.2704    0.4565 H   0  0  0  0  0  0  0  0  0  0  0  0
   -3.1932    3.2563    0.5563 H   0  0  0  0  0  0  0  0  0  0  0  0
   -4.7572    0.6112    1.0526 H   0  0  0  0  0  0  0  0  0  0  0  0
   -5.6396    4.3423    0.1044 H   0  0  0  0  0  0  0  0  0  0  0  0
   -6.0980    4.5241    1.8147 H   0  0  0  0  0  0  0  0  0  0  0  0
   -4.3947    4.2546    1.3736 H   0  0  0  0  0  0  0  0  0  0  0  0
   -6.7760    2.5109    3.6665 H   0  0  0  0  0  0  0  0  0  0  0  0
   -9.6553    0.4674    0.2289 H   0  0  0  0  0  0  0  0  0  0  0  0
   -7.8082    0.7332   -2.6037 H   0  0  0  0  0  0  0  0  0  0  0  0
   -8.4669   -0.2950   -1.3087 H   0  0  0  0  0  0  0  0  0  0  0  0
   -9.1941    1.2958   -1.6387 H   0  0  0  0  0  0  0  0  0  0  0  0
  -12.0137   -0.0397    4.3350 H   0  0  0  0  0  0  0  0  0  0  0  0
  -10.3310   -0.6223    4.4090 H   0  0  0  0  0  0  0  0  0  0  0  0
  -11.0809    2.3372    4.4139 H   0  0  0  0  0  0  0  0  0  0  0  0
  -10.8279    1.3905    5.9026 H   0  0  0  0  0  0  0  0  0  0  0  0
   -7.2636    0.7041    5.4212 H   0  0  0  0  0  0  0  0  0  0  0  0
   -8.6362    0.6341    6.5523 H   0  0  0  0  0  0  0  0  0  0  0  0
   -8.6162   -0.4108    5.1114 H   0  0  0  0  0  0  0  0  0  0  0  0
   -9.1567    3.8099    4.6782 H   0  0  0  0  0  0  0  0  0  0  0  0
   -8.9524    3.1029    6.2989 H   0  0  0  0  0  0  0  0  0  0  0  0
   -7.5772    3.1528    5.1698 H   0  0  0  0  0  0  0  0  0  0  0  0
  -11.7933    1.6153    1.0758 H   0  0  0  0  0  0  0  0  0  0  0  0
  -12.8773    1.0605    2.3741 H   0  0  0  0  0  0  0  0  0  0  0  0
  -11.7403    2.3967    2.6742 H   0  0  0  0  0  0  0  0  0  0  0  0
  -10.2657   -1.5866    2.1704 H   0  0  0  0  0  0  0  0  0  0  0  0
  -12.0148   -1.2693    2.0794 H   0  0  0  0  0  0  0  0  0  0  0  0
  -10.9376   -0.6960    0.7835 H   0  0  0  0  0  0  0  0  0  0  0  0
    2.2729    0.6733   -0.8384 O   0  5  0  0  0  0  0  0  0  0  0  0
  1  2  1  0  0  0  0
  1 27  1  0  0  0  0
  1 28  1  0  0  0  0
  1 29  1  0  0  0  0
  2  3  2  0  0  0  0
  2  6  1  0  0  0  0
  3  4  1  0  0  0  0
  3 30  1  0  0  0  0
  4  5  2  0  0  0  0
  4 58  1  0  0  0  0
  6  7  2  0  0  0  0
  6 31  1  0  0  0  0
  7  8  1  0  0  0  0
  7 32  1  0  0  0  0
  8  9  2  0  0  0  0
  8 33  1  0  0  0  0
  9 10  1  0  0  0  0
  9 11  1  0  0  0  0
 10 34  1  0  0  0  0
 10 35  1  0  0  0  0
 10 36  1  0  0  0  0
 11 16  2  0  0  0  0
 11 12  1  0  0  0  0
 12 13  2  0  0  0  0
 12 37  1  0  0  0  0
 13 22  1  0  0  0  0
 13 14  1  0  0  0  0
 14 15  2  0  0  0  0
 14 19  1  0  0  0  0
 15 16  1  0  0  0  0
 15 38  1  0  0  0  0
 16 17  1  0  0  0  0
 17 18  1  0  0  0  0
 18 39  1  0  0  0  0
 18 40  1  0  0  0  0
 18 41  1  0  0  0  0
 19 20  1  0  0  0  0
 19 25  1  0  0  0  0
 19 26  1  0  0  0  0
 20 21  1  0  0  0  0
 20 42  1  0  0  0  0
 20 43  1  0  0  0  0
 21 22  1  0  0  0  0
 21 44  1  0  0  0  0
 21 45  1  0  0  0  0
 22 23  1  0  0  0  0
 22 24  1  0  0  0  0
 23 46  1  0  0  0  0
 23 47  1  0  0  0  0
 23 48  1  0  0  0  0
 24 49  1  0  0  0  0
 24 50  1  0  0  0  0
 24 51  1  0  0  0  0
 25 52  1  0  0  0  0
 25 53  1  0  0  0  0
 25 54  1  0  0  0  0
 26 55  1  0  0  0  0
 26 56  1  0  0  0  0
 26 57  1  0  0  0  0
M  CHG  1  58  -1
M  END
$$$$
ZINC04147418
  -OEChem-08230709403D

 61 62  0     0  0  0  0  0  0999 V2000
   -7.6251    0.7339   -3.0038 C   0  0  0  0  0  0  0  0  0  0  0  0
   -8.2619    0.7315   -1.6126 C   0  0  0  0  0  0  0  0  0  0  0  0
   -7.3657    1.3351   -0.6774 O   0  0  0  0  0  0  0  0  0  0  0  0
   -7.7813    1.4127    0.6122 C   0  0  0  0  0  0  0  0  0  0  0  0
   -9.0189    0.9167    0.9769 C   0  0  0  0  0  0  0  0  0  0  0  0
   -9.4557    0.9942    2.2930 C   0  0  0  0  0  0  0  0  0  0  0  0
   -8.6468    1.5622    3.2576 C   0  0  0  0  0  0  0  0  0  0  0  0
   -7.4037    2.0630    2.9104 C   0  0  0  0  0  0  0  0  0  0  0  0
   -6.9551    1.9931    1.5892 C   0  0  0  0  0  0  0  0  0  0  0  0
   -5.6369    2.5258    1.2244 C   0  0  0  0  0  0  0  0  0  0  0  0
   -4.6073    1.6783    0.9794 C   0  0  0  0  0  0  0  0  0  0  0  0
   -3.3430    2.1892    0.6295 C   0  0  0  0  0  0  0  0  0  0  0  0
   -2.3083    1.3375    0.3833 C   0  0  0  0  0  0  0  0  0  0  0  0
   -1.0468    1.8473    0.0342 C   0  0  0  0  0  0  0  0  0  0  0  0
   -0.0122    0.9956   -0.2120 C   0  0  0  0  0  0  0  0  0  0  0  0
    1.2089    1.4950   -0.7110 C   0  0  0  0  0  0  0  0  0  0  0  0
    1.3037    2.6670   -1.0269 O   0  0  0  0  0  0  0  0  0  0  0  0
   -0.8377    3.3362   -0.0680 C   0  0  0  0  0  0  0  0  0  0  0  0
   -5.4278    4.0147    1.1222 C   0  0  0  0  0  0  0  0  0  0  0  0
   -9.0571    1.6582    4.7044 C   0  0  0  0  0  0  0  0  0  0  0  0
  -10.5669    1.4796    4.8480 C   0  0  0  0  0  0  0  0  0  0  0  0
  -10.9760    0.2022    4.1052 C   0  0  0  0  0  0  0  0  0  0  0  0
  -10.8250    0.4478    2.6056 C   0  0  0  0  0  0  0  0  0  0  0  0
  -11.8852    1.4523    2.1496 C   0  0  0  0  0  0  0  0  0  0  0  0
  -11.0252   -0.8708    1.8558 C   0  0  0  0  0  0  0  0  0  0  0  0
   -8.3419    0.5680    5.5049 C   0  0  0  0  0  0  0  0  0  0  0  0
   -8.6571    3.0295    5.2522 C   0  0  0  0  0  0  0  0  0  0  0  0
   -7.4200    1.7604   -3.3077 H   0  0  0  0  0  0  0  0  0  0  0  0
   -6.6929    0.1696   -2.9776 H   0  0  0  0  0  0  0  0  0  0  0  0
   -8.3086    0.2735   -3.7171 H   0  0  0  0  0  0  0  0  0  0  0  0
   -8.4669   -0.2950   -1.3087 H   0  0  0  0  0  0  0  0  0  0  0  0
   -9.1941    1.2958   -1.6387 H   0  0  0  0  0  0  0  0  0  0  0  0
   -9.6553    0.4674    0.2289 H   0  0  0  0  0  0  0  0  0  0  0  0
   -6.7760    2.5109    3.6665 H   0  0  0  0  0  0  0  0  0  0  0  0
   -4.7572    0.6112    1.0526 H   0  0  0  0  0  0  0  0  0  0  0  0
   -3.1932    3.2563    0.5563 H   0  0  0  0  0  0  0  0  0  0  0  0
   -2.4581    0.2704    0.4565 H   0  0  0  0  0  0  0  0  0  0  0  0
   -0.1285   -0.0624   -0.0293 H   0  0  0  0  0  0  0  0  0  0  0  0
   -0.9554    3.6493   -1.1054 H   0  0  0  0  0  0  0  0  0  0  0  0
   -1.5725    3.8497    0.5521 H   0  0  0  0  0  0  0  0  0  0  0  0
    0.1660    3.5866    0.2754 H   0  0  0  0  0  0  0  0  0  0  0  0
   -5.6396    4.3423    0.1044 H   0  0  0  0  0  0  0  0  0  0  0  0
   -6.0980    4.5241    1.8147 H   0  0  0  0  0  0  0  0  0  0  0  0
   -4.3947    4.2546    1.3736 H   0  0  0  0  0  0  0  0  0  0  0  0
  -11.0809    2.3372    4.4139 H   0  0  0  0  0  0  0  0  0  0  0  0
  -10.8279    1.3905    5.9026 H   0  0  0  0  0  0  0  0  0  0  0  0
  -12.0137   -0.0397    4.3350 H   0  0  0  0  0  0  0  0  0  0  0  0
  -10.3310   -0.6223    4.4090 H   0  0  0  0  0  0  0  0  0  0  0  0
  -11.7933    1.6153    1.0758 H   0  0  0  0  0  0  0  0  0  0  0  0
  -12.8773    1.0605    2.3741 H   0  0  0  0  0  0  0  0  0  0  0  0
  -11.7403    2.3967    2.6742 H   0  0  0  0  0  0  0  0  0  0  0  0
  -10.2657   -1.5866    2.1704 H   0  0  0  0  0  0  0  0  0  0  0  0
  -12.0148   -1.2693    2.0794 H   0  0  0  0  0  0  0  0  0  0  0  0
  -10.9376   -0.6960    0.7835 H   0  0  0  0  0  0  0  0  0  0  0  0
   -7.2636    0.7041    5.4212 H   0  0  0  0  0  0  0  0  0  0  0  0
   -8.6362    0.6341    6.5523 H   0  0  0  0  0  0  0  0  0  0  0  0
   -8.6162   -0.4108    5.1114 H   0  0  0  0  0  0  0  0  0  0  0  0
   -9.1567    3.8099    4.6782 H   0  0  0  0  0  0  0  0  0  0  0  0
   -8.9524    3.1029    6.2989 H   0  0  0  0  0  0  0  0  0  0  0  0
   -7.5772    3.1528    5.1698 H   0  0  0  0  0  0  0  0  0  0  0  0
    2.2729    0.6733   -0.8384 O   0  5  0  0  0  0  0  0  0  0  0  0
  1  2  1  0  0  0  0
  1 28  1  0  0  0  0
  1 29  1  0  0  0  0
  1 30  1  0  0  0  0
  2  3  1  0  0  0  0
  2 31  1  0  0  0  0
  2 32  1  0  0  0  0
  3  4  1  0  0  0  0
  4  9  2  0  0  0  0
  4  5  1  0  0  0  0
  5  6  2  0  0  0  0
  5 33  1  0  0  0  0
  6 23  1  0  0  0  0
  6  7  1  0  0  0  0
  7  8  2  0  0  0  0
  7 20  1  0  0  0  0
  8  9  1  0  0  0  0
  8 34  1  0  0  0  0
  9 10  1  0  0  0  0
 10 11  2  0  0  0  0
 10 19  1  0  0  0  0
 11 12  1  0  0  0  0
 11 35  1  0  0  0  0
 12 13  2  0  0  0  0
 12 36  1  0  0  0  0
 13 14  1  0  0  0  0
 13 37  1  0  0  0  0
 14 15  2  0  0  0  0
 14 18  1  0  0  0  0
 15 16  1  0  0  0  0
 15 38  1  0  0  0  0
 16 17  2  0  0  0  0
 16 61  1  0  0  0  0
 18 39  1  0  0  0  0
 18 40  1  0  0  0  0
 18 41  1  0  0  0  0
 19 42  1  0  0  0  0
 19 43  1  0  0  0  0
 19 44  1  0  0  0  0
 20 21  1  0  0  0  0
 20 26  1  0  0  0  0
 20 27  1  0  0  0  0
 21 22  1  0  0  0  0
 21 45  1  0  0  0  0
 21 46  1  0  0  0  0
 22 23  1  0  0  0  0
 22 47  1  0  0  0  0
 22 48  1  0  0  0  0
 23 24  1  0  0  0  0
 23 25  1  0  0  0  0
 24 49  1  0  0  0  0
 24 50  1  0  0  0  0
 24 51  1  0  0  0  0
 25 52  1  0  0  0  0
 25 53  1  0  0  0  0
 25 54  1  0  0  0  0
 26 55  1  0  0  0  0
 26 56  1  0  0  0  0
 26 57  1  0  0  0  0
 27 58  1  0  0  0  0
 27 59  1  0  0  0  0
 27 60  1  0  0  0  0
M  CHG  1  61  -1
M  END
$$$$
ZINC04147419
  -OEChem-08230709403D

 64 65  0     0  0  0  0  0  0999 V2000
   -8.5846    0.0876   -4.0050 C   0  0  0  0  0  0  0  0  0  0  0  0
   -7.6251    0.7339   -3.0038 C   0  0  0  0  0  0  0  0  0  0  0  0
   -8.2619    0.7315   -1.6126 C   0  0  0  0  0  0  0  0  0  0  0  0
   -7.3657    1.3351   -0.6774 O   0  0  0  0  0  0  0  0  0  0  0  0
   -7.7813    1.4127    0.6122 C   0  0  0  0  0  0  0  0  0  0  0  0
   -9.0189    0.9167    0.9769 C   0  0  0  0  0  0  0  0  0  0  0  0
   -9.4557    0.9942    2.2930 C   0  0  0  0  0  0  0  0  0  0  0  0
   -8.6468    1.5622    3.2576 C   0  0  0  0  0  0  0  0  0  0  0  0
   -7.4037    2.0630    2.9104 C   0  0  0  0  0  0  0  0  0  0  0  0
   -6.9551    1.9931    1.5892 C   0  0  0  0  0  0  0  0  0  0  0  0
   -5.6369    2.5258    1.2244 C   0  0  0  0  0  0  0  0  0  0  0  0
   -4.6073    1.6783    0.9794 C   0  0  0  0  0  0  0  0  0  0  0  0
   -3.3430    2.1892    0.6295 C   0  0  0  0  0  0  0  0  0  0  0  0
   -2.3083    1.3375    0.3833 C   0  0  0  0  0  0  0  0  0  0  0  0
   -1.0468    1.8473    0.0342 C   0  0  0  0  0  0  0  0  0  0  0  0
   -0.0122    0.9956   -0.2120 C   0  0  0  0  0  0  0  0  0  0  0  0
    1.2089    1.4950   -0.7110 C   0  0  0  0  0  0  0  0  0  0  0  0
    1.3037    2.6670   -1.0269 O   0  0  0  0  0  0  0  0  0  0  0  0
   -0.8377    3.3362   -0.0680 C   0  0  0  0  0  0  0  0  0  0  0  0
   -5.4278    4.0147    1.1222 C   0  0  0  0  0  0  0  0  0  0  0  0
   -9.0571    1.6582    4.7044 C   0  0  0  0  0  0  0  0  0  0  0  0
  -10.5669    1.4796    4.8480 C   0  0  0  0  0  0  0  0  0  0  0  0
  -10.9760    0.2022    4.1052 C   0  0  0  0  0  0  0  0  0  0  0  0
  -10.8250    0.4478    2.6056 C   0  0  0  0  0  0  0  0  0  0  0  0
  -11.8852    1.4523    2.1496 C   0  0  0  0  0  0  0  0  0  0  0  0
  -11.0252   -0.8708    1.8558 C   0  0  0  0  0  0  0  0  0  0  0  0
   -8.3419    0.5680    5.5049 C   0  0  0  0  0  0  0  0  0  0  0  0
   -8.6571    3.0295    5.2522 C   0  0  0  0  0  0  0  0  0  0  0  0
   -8.1309    0.0894   -4.9961 H   0  0  0  0  0  0  0  0  0  0  0  0
   -8.7896   -0.9389   -3.7011 H   0  0  0  0  0  0  0  0  0  0  0  0
   -9.5168    0.6519   -4.0312 H   0  0  0  0  0  0  0  0  0  0  0  0
   -7.4200    1.7604   -3.3077 H   0  0  0  0  0  0  0  0  0  0  0  0
   -6.6929    0.1696   -2.9776 H   0  0  0  0  0  0  0  0  0  0  0  0
   -8.4669   -0.2950   -1.3087 H   0  0  0  0  0  0  0  0  0  0  0  0
   -9.1941    1.2958   -1.6387 H   0  0  0  0  0  0  0  0  0  0  0  0
   -9.6553    0.4674    0.2289 H   0  0  0  0  0  0  0  0  0  0  0  0
   -6.7760    2.5109    3.6665 H   0  0  0  0  0  0  0  0  0  0  0  0
   -4.7572    0.6112    1.0526 H   0  0  0  0  0  0  0  0  0  0  0  0
   -3.1932    3.2563    0.5563 H   0  0  0  0  0  0  0  0  0  0  0  0
   -2.4581    0.2704    0.4565 H   0  0  0  0  0  0  0  0  0  0  0  0
   -0.1285   -0.0624   -0.0293 H   0  0  0  0  0  0  0  0  0  0  0  0
   -0.9554    3.6493   -1.1054 H   0  0  0  0  0  0  0  0  0  0  0  0
   -1.5725    3.8497    0.5521 H   0  0  0  0  0  0  0  0  0  0  0  0
    0.1660    3.5866    0.2754 H   0  0  0  0  0  0  0  0  0  0  0  0
   -5.6396    4.3423    0.1044 H   0  0  0  0  0  0  0  0  0  0  0  0
   -6.0980    4.5241    1.8147 H   0  0  0  0  0  0  0  0  0  0  0  0
   -4.3947    4.2546    1.3736 H   0  0  0  0  0  0  0  0  0  0  0  0
  -11.0809    2.3372    4.4139 H   0  0  0  0  0  0  0  0  0  0  0  0
  -10.8279    1.3905    5.9026 H   0  0  0  0  0  0  0  0  0  0  0  0
  -12.0137   -0.0397    4.3350 H   0  0  0  0  0  0  0  0  0  0  0  0
  -10.3310   -0.6223    4.4090 H   0  0  0  0  0  0  0  0  0  0  0  0
  -11.7933    1.6153    1.0758 H   0  0  0  0  0  0  0  0  0  0  0  0
  -12.8773    1.0605    2.3741 H   0  0  0  0  0  0  0  0  0  0  0  0
  -11.7403    2.3967    2.6742 H   0  0  0  0  0  0  0  0  0  0  0  0
  -10.2657   -1.5866    2.1704 H   0  0  0  0  0  0  0  0  0  0  0  0
  -12.0148   -1.2693    2.0794 H   0  0  0  0  0  0  0  0  0  0  0  0
  -10.9376   -0.6960    0.7835 H   0  0  0  0  0  0  0  0  0  0  0  0
   -7.2636    0.7041    5.4212 H   0  0  0  0  0  0  0  0  0  0  0  0
   -8.6362    0.6341    6.5523 H   0  0  0  0  0  0  0  0  0  0  0  0
   -8.6162   -0.4108    5.1114 H   0  0  0  0  0  0  0  0  0  0  0  0
   -9.1567    3.8099    4.6782 H   0  0  0  0  0  0  0  0  0  0  0  0
   -8.9524    3.1029    6.2989 H   0  0  0  0  0  0  0  0  0  0  0  0
   -7.5772    3.1528    5.1698 H   0  0  0  0  0  0  0  0  0  0  0  0
    2.2729    0.6733   -0.8384 O   0  5  0  0  0  0  0  0  0  0  0  0
  1  2  1  0  0  0  0
  1 29  1  0  0  0  0
  1 30  1  0  0  0  0
  1 31  1  0  0  0  0
  2  3  1  0  0  0  0
  2 32  1  0  0  0  0
  2 33  1  0  0  0  0
  3  4  1  0  0  0  0
  3 34  1  0  0  0  0
  3 35  1  0  0  0  0
  4  5  1  0  0  0  0
  5 10  2  0  0  0  0
  5  6  1  0  0  0  0
  6  7  2  0  0  0  0
  6 36  1  0  0  0  0
  7 24  1  0  0  0  0
  7  8  1  0  0  0  0
  8  9  2  0  0  0  0
  8 21  1  0  0  0  0
  9 10  1  0  0  0  0
  9 37  1  0  0  0  0
 10 11  1  0  0  0  0
 11 12  2  0  0  0  0
 11 20  1  0  0  0  0
 12 13  1  0  0  0  0
 12 38  1  0  0  0  0
 13 14  2  0  0  0  0
 13 39  1  0  0  0  0
 14 15  1  0  0  0  0
 14 40  1  0  0  0  0
 15 16  2  0  0  0  0
 15 19  1  0  0  0  0
 16 17  1  0  0  0  0
 16 41  1  0  0  0  0
 17 18  2  0  0  0  0
 17 64  1  0  0  0  0
 19 42  1  0  0  0  0
 19 43  1  0  0  0  0
 19 44  1  0  0  0  0
 20 45  1  0  0  0  0
 20 46  1  0  0  0  0
 20 47  1  0  0  0  0
 21 22  1  0  0  0  0
 21 27  1  0  0  0  0
 21 28  1  0  0  0  0
 22 23  1  0  0  0  0
 22 48  1  0  0  0  0
 22 49  1  0  0  0  0
 23 24  1  0  0  0  0
 23 50  1  0  0  0  0
 23 51  1  0  0  0  0
 24 25  1  0  0  0  0
 24 26  1  0  0  0  0
 25 52  1  0  0  0  0
 25 53  1  0  0  0  0
 25 54  1  0  0  0  0
 26 55  1  0  0  0  0
 26 56  1  0  0  0  0
 26 57  1  0  0  0  0
 27 58  1  0  0  0  0
 27 59  1  0  0  0  0
 27 60  1  0  0  0  0
 28 61  1  0  0  0  0
 28 62  1  0  0  0  0
 28 63  1  0  0  0  0
M  CHG  1  64  -1
M  END
$$$$
ZINC04632537
  -OEChem-08230709403D

 52 54  0     0  0  0  0  0  0999 V2000
    0.9417   -2.6231    0.1725 C   0  0  0  0  0  0  0  0  0  0  0  0
    1.1839   -1.1359    0.1987 C   0  0  0  0  0  0  0  0  0  0  0  0
    2.4424   -0.6440    0.4637 C   0  0  0  0  0  0  0  0  0  0  0  0
    2.6785    0.7257    0.4921 C   0  0  0  0  0  0  0  0  0  0  0  0
    1.6464    1.6060    0.2459 C   0  0  0  0  0  0  0  0  0  0  0  0
    0.3752    1.1209   -0.0195 C   0  0  0  0  0  0  0  0  0  0  0  0
    0.1345   -0.2501   -0.0449 C   0  0  0  0  0  0  0  0  0  0  0  0
   -1.2256   -0.7639   -0.3279 C   0  0  0  0  0  0  0  0  0  0  0  0
   -2.1948   -0.5373    0.5113 N   0  0  0  0  0  0  0  0  0  0  0  0
   -1.4832   -1.5360   -1.5664 C   0  0  0  0  0  0  0  0  0  0  0  0
   -0.4966   -1.6276   -2.5489 C   0  0  0  0  0  0  0  0  0  0  0  0
   -0.7332   -2.3498   -3.6977 C   0  0  0  0  0  0  0  0  0  0  0  0
   -1.9652   -2.9809   -3.8841 C   0  0  0  0  0  0  0  0  0  0  0  0
   -2.9543   -2.8841   -2.9027 C   0  0  0  0  0  0  0  0  0  0  0  0
   -2.7142   -2.1663   -1.7519 C   0  0  0  0  0  0  0  0  0  0  0  0
   -2.2219   -3.7513   -5.1189 C   0  0  0  0  0  0  0  0  0  0  0  0
   -3.2932   -4.3004   -5.2806 O   0  0  0  0  0  0  0  0  0  0  0  0
    1.8385    3.1003    0.2451 C   0  0  0  0  0  0  0  0  0  0  0  0
    3.1314    3.4759    0.9661 C   0  0  0  0  0  0  0  0  0  0  0  0
    4.2737    2.6402    0.3767 C   0  0  0  0  0  0  0  0  0  0  0  0
    4.0784    1.1871    0.8049 C   0  0  0  0  0  0  0  0  0  0  0  0
    4.3248    1.0662    2.3101 C   0  0  0  0  0  0  0  0  0  0  0  0
    5.0794    0.3032    0.0582 C   0  0  0  0  0  0  0  0  0  0  0  0
    1.9030    3.5998   -1.1996 C   0  0  0  0  0  0  0  0  0  0  0  0
    0.6550    3.7615    0.9543 C   0  0  0  0  0  0  0  0  0  0  0  0
    1.0518   -2.9912   -0.8475 H   0  0  0  0  0  0  0  0  0  0  0  0
    1.6653   -3.1205    0.8184 H   0  0  0  0  0  0  0  0  0  0  0  0
   -0.0671   -2.8332    0.5277 H   0  0  0  0  0  0  0  0  0  0  0  0
    3.2551   -1.3299    0.6519 H   0  0  0  0  0  0  0  0  0  0  0  0
   -0.4328    1.8111   -0.2124 H   0  0  0  0  0  0  0  0  0  0  0  0
   -3.0855   -0.8738    0.3260 H   0  0  0  0  0  0  0  0  0  0  0  0
    0.4542   -1.1356   -2.4068 H   0  0  0  0  0  0  0  0  0  0  0  0
    0.0320   -2.4243   -4.4562 H   0  0  0  0  0  0  0  0  0  0  0  0
   -3.9070   -3.3721   -3.0460 H   0  0  0  0  0  0  0  0  0  0  0  0
   -3.4788   -2.0916   -0.9928 H   0  0  0  0  0  0  0  0  0  0  0  0
    3.3387    4.5359    0.8198 H   0  0  0  0  0  0  0  0  0  0  0  0
    3.0327    3.2646    2.0308 H   0  0  0  0  0  0  0  0  0  0  0  0
    4.2552    2.7085   -0.7110 H   0  0  0  0  0  0  0  0  0  0  0  0
    5.2289    3.0083    0.7513 H   0  0  0  0  0  0  0  0  0  0  0  0
    4.2060    0.0265    2.6153 H   0  0  0  0  0  0  0  0  0  0  0  0
    5.3368    1.3991    2.5405 H   0  0  0  0  0  0  0  0  0  0  0  0
    3.6071    1.6867    2.8468 H   0  0  0  0  0  0  0  0  0  0  0  0
    4.9011    0.3785   -1.0145 H   0  0  0  0  0  0  0  0  0  0  0  0
    6.0936    0.6339    0.2820 H   0  0  0  0  0  0  0  0  0  0  0  0
    4.9567   -0.7324    0.3751 H   0  0  0  0  0  0  0  0  0  0  0  0
    0.9738    3.3507   -1.7120 H   0  0  0  0  0  0  0  0  0  0  0  0
    2.0420    4.6809   -1.2044 H   0  0  0  0  0  0  0  0  0  0  0  0
    2.7392    3.1238   -1.7117 H   0  0  0  0  0  0  0  0  0  0  0  0
    0.5993    3.4010    1.9814 H   0  0  0  0  0  0  0  0  0  0  0  0
    0.7904    4.8431    0.9557 H   0  0  0  0  0  0  0  0  0  0  0  0
   -0.2680    3.5116    0.4310 H   0  0  0  0  0  0  0  0  0  0  0  0
   -1.2677   -3.8446   -6.0653 O   0  5  0  0  0  0  0  0  0  0  0  0
  1  2  1  0  0  0  0
  1 26  1  0  0  0  0
  1 27  1  0  0  0  0
  1 28  1  0  0  0  0
  2  7  2  0  0  0  0
  2  3  1  0  0  0  0
  3  4  2  0  0  0  0
  3 29  1  0  0  0  0
  4 21  1  0  0  0  0
  4  5  1  0  0  0  0
  5  6  2  0  0  0  0
  5 18  1  0  0  0  0
  6  7  1  0  0  0  0
  6 30  1  0  0  0  0
  7  8  1  0  0  0  0
  8  9  2  0  0  0  0
  8 10  1  0  0  0  0
  9 31  1  0  0  0  0
 10 15  2  0  0  0  0
 10 11  1  0  0  0  0
 11 12  2  0  0  0  0
 11 32  1  0  0  0  0
 12 13  1  0  0  0  0
 12 33  1  0  0  0  0
 13 14  2  0  0  0  0
 13 16  1  0  0  0  0
 14 15  1  0  0  0  0
 14 34  1  0  0  0  0
 15 35  1  0  0  0  0
 16 17  2  0  0  0  0
 16 52  1  0  0  0  0
 18 19  1  0  0  0  0
 18 24  1  0  0  0  0
 18 25  1  0  0  0  0
 19 20  1  0  0  0  0
 19 36  1  0  0  0  0
 19 37  1  0  0  0  0
 20 21  1  0  0  0  0
 20 38  1  0  0  0  0
 20 39  1  0  0  0  0
 21 22  1  0  0  0  0
 21 23  1  0  0  0  0
 22 40  1  0  0  0  0
 22 41  1  0  0  0  0
 22 42  1  0  0  0  0
 23 43  1  0  0  0  0
 23 44  1  0  0  0  0
 23 45  1  0  0  0  0
 24 46  1  0  0  0  0
 24 47  1  0  0  0  0
 24 48  1  0  0  0  0
 25 49  1  0  0  0  0
 25 50  1  0  0  0  0
 25 51  1  0  0  0  0
M  CHG  1  52  -1
M  END
$$$$
ZINC04632538
  -OEChem-08230709403D

 65 67  0     0  0  0  0  0  0999 V2000
    2.6196    1.3952    0.0357 C   0  0  0  0  0  0  0  0  0  0  0  0
    2.5585   -0.1102    0.0657 C   0  0  0  0  0  0  0  0  0  0  0  0
    3.7197   -0.8498    0.0986 C   0  0  0  0  0  0  0  0  0  0  0  0
    3.6767   -2.2390    0.1252 C   0  0  0  0  0  0  0  0  0  0  0  0
    2.4608   -2.8886    0.1245 C   0  0  0  0  0  0  0  0  0  0  0  0
    1.2861   -2.1529    0.0956 C   0  0  0  0  0  0  0  0  0  0  0  0
    1.3258   -0.7621    0.0598 C   0  0  0  0  0  0  0  0  0  0  0  0
    0.0679    0.0200    0.0218 C   0  0  0  0  0  0  0  0  0  0  0  0
   -0.7141   -0.0551   -1.0164 N   0  0  0  0  0  0  0  0  0  0  0  0
   -0.3099   -0.7927   -2.1555 O   0  0  0  0  0  0  0  0  0  0  0  0
   -1.2119   -0.6976   -3.2597 C   0  0  0  0  0  0  0  0  0  0  0  0
   -1.3382    0.7650   -3.6906 C   0  0  0  0  0  0  0  0  0  0  0  0
   -0.6777   -1.5290   -4.4278 C   0  0  0  0  0  0  0  0  0  0  0  0
   -2.5856   -1.2270   -2.8432 C   0  0  0  0  0  0  0  0  0  0  0  0
   -0.2999    0.8871    1.1650 C   0  0  0  0  0  0  0  0  0  0  0  0
    0.4549    0.8516    2.3385 C   0  0  0  0  0  0  0  0  0  0  0  0
    0.1171    1.6615    3.3995 C   0  0  0  0  0  0  0  0  0  0  0  0
   -0.9882    2.5110    3.3052 C   0  0  0  0  0  0  0  0  0  0  0  0
   -1.7467    2.5417    2.1321 C   0  0  0  0  0  0  0  0  0  0  0  0
   -1.4044    1.7351    1.0702 C   0  0  0  0  0  0  0  0  0  0  0  0
   -1.3544    3.3763    4.4446 C   0  0  0  0  0  0  0  0  0  0  0  0
   -2.3152    4.1150    4.3621 O   0  0  0  0  0  0  0  0  0  0  0  0
    2.3441   -4.3902    0.1629 C   0  0  0  0  0  0  0  0  0  0  0  0
    3.6651   -5.0420   -0.2404 C   0  0  0  0  0  0  0  0  0  0  0  0
    4.7867   -4.4216    0.6011 C   0  0  0  0  0  0  0  0  0  0  0  0
    4.9894   -2.9783    0.1451 C   0  0  0  0  0  0  0  0  0  0  0  0
    5.5924   -2.9736   -1.2610 C   0  0  0  0  0  0  0  0  0  0  0  0
    5.9495   -2.2756    1.1071 C   0  0  0  0  0  0  0  0  0  0  0  0
    1.9758   -4.8316    1.5808 C   0  0  0  0  0  0  0  0  0  0  0  0
    1.2457   -4.8357   -0.8046 C   0  0  0  0  0  0  0  0  0  0  0  0
    2.7023    1.7758    1.0538 H   0  0  0  0  0  0  0  0  0  0  0  0
    3.4877    1.7122   -0.5423 H   0  0  0  0  0  0  0  0  0  0  0  0
    1.7131    1.7866   -0.4260 H   0  0  0  0  0  0  0  0  0  0  0  0
    4.6744   -0.3449    0.1034 H   0  0  0  0  0  0  0  0  0  0  0  0
    0.3339   -2.6624    0.0960 H   0  0  0  0  0  0  0  0  0  0  0  0
   -0.3595    1.1422   -3.9873 H   0  0  0  0  0  0  0  0  0  0  0  0
   -2.0262    0.8376   -4.5329 H   0  0  0  0  0  0  0  0  0  0  0  0
   -1.7188    1.3574   -2.8585 H   0  0  0  0  0  0  0  0  0  0  0  0
   -0.5877   -2.5710   -4.1208 H   0  0  0  0  0  0  0  0  0  0  0  0
   -1.3657   -1.4564   -5.2700 H   0  0  0  0  0  0  0  0  0  0  0  0
    0.3010   -1.1519   -4.7245 H   0  0  0  0  0  0  0  0  0  0  0  0
   -2.9662   -0.6347   -2.0111 H   0  0  0  0  0  0  0  0  0  0  0  0
   -3.2737   -1.1544   -3.6855 H   0  0  0  0  0  0  0  0  0  0  0  0
   -2.4957   -2.2690   -2.5363 H   0  0  0  0  0  0  0  0  0  0  0  0
    1.3066    0.1917    2.4128 H   0  0  0  0  0  0  0  0  0  0  0  0
    0.7041    1.6374    4.3057 H   0  0  0  0  0  0  0  0  0  0  0  0
   -2.6010    3.1983    2.0583 H   0  0  0  0  0  0  0  0  0  0  0  0
   -1.9906    1.7587    0.1634 H   0  0  0  0  0  0  0  0  0  0  0  0
    3.6170   -6.1149   -0.0543 H   0  0  0  0  0  0  0  0  0  0  0  0
    3.8560   -4.8610   -1.2982 H   0  0  0  0  0  0  0  0  0  0  0  0
    4.5072   -4.4380    1.6545 H   0  0  0  0  0  0  0  0  0  0  0  0
    5.7083   -4.9855    0.4572 H   0  0  0  0  0  0  0  0  0  0  0  0
    5.7572   -1.9451   -1.5822 H   0  0  0  0  0  0  0  0  0  0  0  0
    6.5426   -3.5076   -1.2507 H   0  0  0  0  0  0  0  0  0  0  0  0
    4.9071   -3.4646   -1.9519 H   0  0  0  0  0  0  0  0  0  0  0  0
    5.5194   -2.2677    2.1086 H   0  0  0  0  0  0  0  0  0  0  0  0
    6.9007   -2.8076    1.1243 H   0  0  0  0  0  0  0  0  0  0  0  0
    6.1125   -1.2507    0.7736 H   0  0  0  0  0  0  0  0  0  0  0  0
    1.0235   -4.3838    1.8649 H   0  0  0  0  0  0  0  0  0  0  0  0
    1.8905   -5.9178    1.6126 H   0  0  0  0  0  0  0  0  0  0  0  0
    2.7512   -4.5076    2.2750 H   0  0  0  0  0  0  0  0  0  0  0  0
    1.4992   -4.5147   -1.8149 H   0  0  0  0  0  0  0  0  0  0  0  0
    1.1582   -5.9219   -0.7796 H   0  0  0  0  0  0  0  0  0  0  0  0
    0.2971   -4.3879   -0.5084 H   0  0  0  0  0  0  0  0  0  0  0  0
   -0.6228    3.3463    5.5755 O   0  5  0  0  0  0  0  0  0  0  0  0
  1  2  1  0  0  0  0
  1 31  1  0  0  0  0
  1 32  1  0  0  0  0
  1 33  1  0  0  0  0
  2  7  2  0  0  0  0
  2  3  1  0  0  0  0
  3  4  2  0  0  0  0
  3 34  1  0  0  0  0
  4 26  1  0  0  0  0
  4  5  1  0  0  0  0
  5  6  2  0  0  0  0
  5 23  1  0  0  0  0
  6  7  1  0  0  0  0
  6 35  1  0  0  0  0
  7  8  1  0  0  0  0
  8  9  2  0  0  0  0
  8 15  1  0  0  0  0
  9 10  1  0  0  0  0
 10 11  1  0  0  0  0
 11 12  1  0  0  0  0
 11 13  1  0  0  0  0
 11 14  1  0  0  0  0
 12 36  1  0  0  0  0
 12 37  1  0  0  0  0
 12 38  1  0  0  0  0
 13 39  1  0  0  0  0
 13 40  1  0  0  0  0
 13 41  1  0  0  0  0
 14 42  1  0  0  0  0
 14 43  1  0  0  0  0
 14 44  1  0  0  0  0
 15 20  2  0  0  0  0
 15 16  1  0  0  0  0
 16 17  2  0  0  0  0
 16 45  1  0  0  0  0
 17 18  1  0  0  0  0
 17 46  1  0  0  0  0
 18 19  2  0  0  0  0
 18 21  1  0  0  0  0
 19 20  1  0  0  0  0
 19 47  1  0  0  0  0
 20 48  1  0  0  0  0
 21 22  2  0  0  0  0
 21 65  1  0  0  0  0
 23 24  1  0  0  0  0
 23 29  1  0  0  0  0
 23 30  1  0  0  0  0
 24 25  1  0  0  0  0
 24 49  1  0  0  0  0
 24 50  1  0  0  0  0
 25 26  1  0  0  0  0
 25 51  1  0  0  0  0
 25 52  1  0  0  0  0
 26 27  1  0  0  0  0
 26 28  1  0  0  0  0
 27 53  1  0  0  0  0
 27 54  1  0  0  0  0
 27 55  1  0  0  0  0
 28 56  1  0  0  0  0
 28 57  1  0  0  0  0
 28 58  1  0  0  0  0
 29 59  1  0  0  0  0
 29 60  1  0  0  0  0
 29 61  1  0  0  0  0
 30 62  1  0  0  0  0
 30 63  1  0  0  0  0
 30 64  1  0  0  0  0
M  CHG  1  65  -1
M  END
$$$$
ZINC04632539
  -OEChem-08230709403D

 53 55  0     0  0  0  0  0  0999 V2000
    3.6653    8.5214   -0.9374 C   0  0  0  0  0  0  0  0  0  0  0  0
    3.9062    7.9141    0.4460 C   0  0  0  0  0  0  0  0  0  0  0  0
    5.2501    8.4018    0.9829 C   0  0  0  0  0  0  0  0  0  0  0  0
    6.3657    7.7665    0.1448 C   0  0  0  0  0  0  0  0  0  0  0  0
    6.4159    6.2735    0.4624 C   0  0  0  0  0  0  0  0  0  0  0  0
    5.0467    5.6582    0.3341 C   0  0  0  0  0  0  0  0  0  0  0  0
    3.8920    6.4113    0.3381 C   0  0  0  0  0  0  0  0  0  0  0  0
    2.6558    5.7843    0.2320 C   0  0  0  0  0  0  0  0  0  0  0  0
    2.5690    4.4149    0.1162 C   0  0  0  0  0  0  0  0  0  0  0  0
    3.7339    3.6485    0.1055 C   0  0  0  0  0  0  0  0  0  0  0  0
    4.9696    4.2787    0.2205 C   0  0  0  0  0  0  0  0  0  0  0  0
    3.6566    2.1743   -0.0212 C   0  0  0  0  0  0  0  0  0  0  0  0
    4.5353    1.5357   -0.7389 N   0  0  0  0  0  0  0  0  0  0  0  0
    5.4802    2.2570   -1.5082 O   0  0  0  0  0  0  0  0  0  0  0  0
    6.3825    1.4296   -2.2455 C   0  0  0  0  0  0  0  0  0  0  0  0
    2.5796    1.4271    0.6688 C   0  0  0  0  0  0  0  0  0  0  0  0
    1.8735    2.0264    1.7129 C   0  0  0  0  0  0  0  0  0  0  0  0
    0.8723    1.3326    2.3548 C   0  0  0  0  0  0  0  0  0  0  0  0
    0.5633    0.0282    1.9605 C   0  0  0  0  0  0  0  0  0  0  0  0
    1.2708   -0.5710    0.9151 C   0  0  0  0  0  0  0  0  0  0  0  0
    2.2716    0.1242    0.2744 C   0  0  0  0  0  0  0  0  0  0  0  0
   -0.5101   -0.7169    2.6487 C   0  0  0  0  0  0  0  0  0  0  0  0
   -1.1246   -0.1958    3.5578 O   0  0  0  0  0  0  0  0  0  0  0  0
    6.9245    6.0787    1.8922 C   0  0  0  0  0  0  0  0  0  0  0  0
    7.3728    5.5825   -0.5111 C   0  0  0  0  0  0  0  0  0  0  0  0
    2.7918    8.3623    1.3937 C   0  0  0  0  0  0  0  0  0  0  0  0
    2.6977    8.1915   -1.3156 H   0  0  0  0  0  0  0  0  0  0  0  0
    3.6748    9.6089   -0.8635 H   0  0  0  0  0  0  0  0  0  0  0  0
    4.4516    8.1967   -1.6188 H   0  0  0  0  0  0  0  0  0  0  0  0
    5.3590    8.1033    2.0256 H   0  0  0  0  0  0  0  0  0  0  0  0
    5.3050    9.4876    0.9044 H   0  0  0  0  0  0  0  0  0  0  0  0
    7.3211    8.2275    0.3955 H   0  0  0  0  0  0  0  0  0  0  0  0
    6.1554    7.9095   -0.9151 H   0  0  0  0  0  0  0  0  0  0  0  0
    1.7535    6.3777    0.2410 H   0  0  0  0  0  0  0  0  0  0  0  0
    1.6039    3.9370    0.0344 H   0  0  0  0  0  0  0  0  0  0  0  0
    5.8746    3.6894    0.2171 H   0  0  0  0  0  0  0  0  0  0  0  0
    5.8185    0.8016   -2.9351 H   0  0  0  0  0  0  0  0  0  0  0  0
    7.0737    2.0572   -2.8081 H   0  0  0  0  0  0  0  0  0  0  0  0
    6.9434    0.7991   -1.5557 H   0  0  0  0  0  0  0  0  0  0  0  0
    2.1124    3.0346    2.0175 H   0  0  0  0  0  0  0  0  0  0  0  0
    0.3230    1.7980    3.1597 H   0  0  0  0  0  0  0  0  0  0  0  0
    1.0328   -1.5793    0.6100 H   0  0  0  0  0  0  0  0  0  0  0  0
    2.8183   -0.3387   -0.5339 H   0  0  0  0  0  0  0  0  0  0  0  0
    6.9803    5.0134    2.1160 H   0  0  0  0  0  0  0  0  0  0  0  0
    7.9153    6.5227    1.9890 H   0  0  0  0  0  0  0  0  0  0  0  0
    6.2403    6.5612    2.5902 H   0  0  0  0  0  0  0  0  0  0  0  0
    7.0089    5.7104   -1.5306 H   0  0  0  0  0  0  0  0  0  0  0  0
    8.3648    6.0250   -0.4211 H   0  0  0  0  0  0  0  0  0  0  0  0
    7.4263    4.5197   -0.2751 H   0  0  0  0  0  0  0  0  0  0  0  0
    2.9539    7.9238    2.3784 H   0  0  0  0  0  0  0  0  0  0  0  0
    2.7988    9.4493    1.4744 H   0  0  0  0  0  0  0  0  0  0  0  0
    1.8287    8.0332    1.0035 H   0  0  0  0  0  0  0  0  0  0  0  0
   -0.8077   -1.9746    2.2683 O   0  5  0  0  0  0  0  0  0  0  0  0
  1  2  1  0  0  0  0
  1 27  1  0  0  0  0
  1 28  1  0  0  0  0
  1 29  1  0  0  0  0
  2  7  1  0  0  0  0
  2  3  1  0  0  0  0
  2 26  1  0  0  0  0
  3  4  1  0  0  0  0
  3 30  1  0  0  0  0
  3 31  1  0  0  0  0
  4  5  1  0  0  0  0
  4 32  1  0  0  0  0
  4 33  1  0  0  0  0
  5  6  1  0  0  0  0
  5 24  1  0  0  0  0
  5 25  1  0  0  0  0
  6 11  2  0  0  0  0
  6  7  1  0  0  0  0
  7  8  2  0  0  0  0
  8  9  1  0  0  0  0
  8 34  1  0  0  0  0
  9 10  2  0  0  0  0
  9 35  1  0  0  0  0
 10 11  1  0  0  0  0
 10 12  1  0  0  0  0
 11 36  1  0  0  0  0
 12 13  2  0  0  0  0
 12 16  1  0  0  0  0
 13 14  1  0  0  0  0
 14 15  1  0  0  0  0
 15 37  1  0  0  0  0
 15 38  1  0  0  0  0
 15 39  1  0  0  0  0
 16 21  2  0  0  0  0
 16 17  1  0  0  0  0
 17 18  2  0  0  0  0
 17 40  1  0  0  0  0
 18 19  1  0  0  0  0
 18 41  1  0  0  0  0
 19 20  2  0  0  0  0
 19 22  1  0  0  0  0
 20 21  1  0  0  0  0
 20 42  1  0  0  0  0
 21 43  1  0  0  0  0
 22 23  2  0  0  0  0
 22 53  1  0  0  0  0
 24 44  1  0  0  0  0
 24 45  1  0  0  0  0
 24 46  1  0  0  0  0
 25 47  1  0  0  0  0
 25 48  1  0  0  0  0
 25 49  1  0  0  0  0
 26 50  1  0  0  0  0
 26 51  1  0  0  0  0
 26 52  1  0  0  0  0
M  CHG  1  53  -1
M  END
$$$$
