ZINC00576503
  -OEChem-08230709463D

 51 52  0     0  0  0  0  0  0999 V2000
  -15.1836   -5.0922    0.7715 C   0  0  0  0  0  0  0  0  0  0  0  0
  -13.9355   -5.5899    0.0397 C   0  0  0  0  0  0  0  0  0  0  0  0
  -14.2986   -5.9469   -1.4030 C   0  0  0  0  0  0  0  0  0  0  0  0
  -13.3886   -6.8299    0.7498 C   0  0  0  0  0  0  0  0  0  0  0  0
  -12.8873   -4.5072    0.0408 C   0  0  0  0  0  0  0  0  0  0  0  0
  -12.3996   -4.0184    1.2383 C   0  0  0  0  0  0  0  0  0  0  0  0
  -11.4381   -3.0252    1.2392 C   0  0  0  0  0  0  0  0  0  0  0  0
  -10.9636   -2.5215    0.0426 C   0  0  0  0  0  0  0  0  0  0  0  0
  -11.4548   -3.0069   -1.1549 C   0  0  0  0  0  0  0  0  0  0  0  0
  -12.4131   -4.0031   -1.1559 C   0  0  0  0  0  0  0  0  0  0  0  0
   -9.7380   -1.2556    0.0438 S   0  0  0  0  0  0  0  0  0  0  0  0
   -9.9125   -0.5831    1.2834 O   0  0  0  0  0  0  0  0  0  0  0  0
   -9.9254   -0.5683   -1.1858 O   0  0  0  0  0  0  0  0  0  0  0  0
   -8.1543   -2.1400    0.0302 C   0  0  0  0  0  0  0  0  0  0  0  0
   -7.0057   -1.1293    0.0302 C   0  0  0  0  0  0  0  0  0  0  0  0
   -5.6699   -1.8752    0.0187 C   0  0  0  0  0  0  0  0  0  0  0  0
   -4.5386   -0.8797    0.0188 C   0  0  0  0  0  0  0  0  0  0  0  0
   -4.0134   -0.4303    1.2159 C   0  0  0  0  0  0  0  0  0  0  0  0
   -2.9751    0.4822    1.2160 C   0  0  0  0  0  0  0  0  0  0  0  0
   -2.4615    0.9450    0.0189 C   0  0  0  0  0  0  0  0  0  0  0  0
   -2.9902    0.4995   -1.1782 C   0  0  0  0  0  0  0  0  0  0  0  0
   -4.0257   -0.4163   -1.1783 C   0  0  0  0  0  0  0  0  0  0  0  0
   -1.3295    1.9397    0.0189 C   0  0  0  0  0  0  0  0  0  0  0  0
   -0.0143    1.2041    0.0087 C   0  0  0  0  0  0  0  0  0  0  0  0
    0.0021   -0.0041    0.0020 O   0  0  0  0  0  0  0  0  0  0  0  0
  -15.5732   -4.2088    0.2656 H   0  0  0  0  0  0  0  0  0  0  0  0
  -15.9417   -5.8753    0.7707 H   0  0  0  0  0  0  0  0  0  0  0  0
  -14.9249   -4.8378    1.7993 H   0  0  0  0  0  0  0  0  0  0  0  0
  -13.4094   -6.3016   -1.9243 H   0  0  0  0  0  0  0  0  0  0  0  0
  -15.0567   -6.7301   -1.4038 H   0  0  0  0  0  0  0  0  0  0  0  0
  -14.6882   -5.0636   -1.9089 H   0  0  0  0  0  0  0  0  0  0  0  0
  -13.1299   -6.5756    1.7777 H   0  0  0  0  0  0  0  0  0  0  0  0
  -14.1467   -7.6131    0.7491 H   0  0  0  0  0  0  0  0  0  0  0  0
  -12.4994   -7.1845    0.2285 H   0  0  0  0  0  0  0  0  0  0  0  0
  -12.7701   -4.4122    2.1732 H   0  0  0  0  0  0  0  0  0  0  0  0
  -11.0574   -2.6431    2.1749 H   0  0  0  0  0  0  0  0  0  0  0  0
  -11.0872   -2.6102   -2.0898 H   0  0  0  0  0  0  0  0  0  0  0  0
  -12.7939   -4.3852   -2.0915 H   0  0  0  0  0  0  0  0  0  0  0  0
   -8.0923   -2.7604   -0.8639 H   0  0  0  0  0  0  0  0  0  0  0  0
   -8.0830   -2.7711    0.9160 H   0  0  0  0  0  0  0  0  0  0  0  0
   -7.0677   -0.5088    0.9243 H   0  0  0  0  0  0  0  0  0  0  0  0
   -7.0770   -0.4982   -0.8556 H   0  0  0  0  0  0  0  0  0  0  0  0
   -5.6079   -2.4957   -0.8753 H   0  0  0  0  0  0  0  0  0  0  0  0
   -5.5986   -2.5063    0.9046 H   0  0  0  0  0  0  0  0  0  0  0  0
   -4.4142   -0.7923    2.1512 H   0  0  0  0  0  0  0  0  0  0  0  0
   -2.5648    0.8334    2.1513 H   0  0  0  0  0  0  0  0  0  0  0  0
   -2.5919    0.8644   -2.1135 H   0  0  0  0  0  0  0  0  0  0  0  0
   -4.4357   -0.7676   -2.1136 H   0  0  0  0  0  0  0  0  0  0  0  0
   -1.3915    2.5607    0.9126 H   0  0  0  0  0  0  0  0  0  0  0  0
   -1.4000    2.5704   -0.8673 H   0  0  0  0  0  0  0  0  0  0  0  0
    1.1389    1.8910    0.0013 O   0  5  0  0  0  0  0  0  0  0  0  0
  1  2  1  0  0  0  0
  1 26  1  0  0  0  0
  1 27  1  0  0  0  0
  1 28  1  0  0  0  0
  2  3  1  0  0  0  0
  2  4  1  0  0  0  0
  2  5  1  0  0  0  0
  3 29  1  0  0  0  0
  3 30  1  0  0  0  0
  3 31  1  0  0  0  0
  4 32  1  0  0  0  0
  4 33  1  0  0  0  0
  4 34  1  0  0  0  0
  5 10  2  0  0  0  0
  5  6  1  0  0  0  0
  6  7  2  0  0  0  0
  6 35  1  0  0  0  0
  7  8  1  0  0  0  0
  7 36  1  0  0  0  0
  8  9  2  0  0  0  0
  8 11  1  0  0  0  0
  9 10  1  0  0  0  0
  9 37  1  0  0  0  0
 10 38  1  0  0  0  0
 11 12  2  0  0  0  0
 11 13  2  0  0  0  0
 11 14  1  0  0  0  0
 14 15  1  0  0  0  0
 14 39  1  0  0  0  0
 14 40  1  0  0  0  0
 15 16  1  0  0  0  0
 15 41  1  0  0  0  0
 15 42  1  0  0  0  0
 16 17  1  0  0  0  0
 16 43  1  0  0  0  0
 16 44  1  0  0  0  0
 17 22  2  0  0  0  0
 17 18  1  0  0  0  0
 18 19  2  0  0  0  0
 18 45  1  0  0  0  0
 19 20  1  0  0  0  0
 19 46  1  0  0  0  0
 20 21  2  0  0  0  0
 20 23  1  0  0  0  0
 21 22  1  0  0  0  0
 21 47  1  0  0  0  0
 22 48  1  0  0  0  0
 23 24  1  0  0  0  0
 23 49  1  0  0  0  0
 23 50  1  0  0  0  0
 24 25  2  0  0  0  0
 24 51  1  0  0  0  0
M  CHG  1  51  -1
M  END
$$$$
ZINC00585637
  -OEChem-08230709463D

 62 66  0     1  0  0  0  0  0999 V2000
    8.1648    1.2509   -0.6958 C   0  0  0  0  0  0  0  0  0  0  0  0
    6.9483    0.6400    0.0027 C   0  0  2  0  0  0  0  0  0  0  0  0
    6.9476    0.9323    1.0528 H   0  0  0  0  0  0  0  0  0  0  0  0
    7.0125   -0.8850   -0.1022 C   0  0  1  0  0  0  0  0  0  0  0  0
    7.9856   -1.2900    0.1754 H   0  0  0  0  0  0  0  0  0  0  0  0
    5.8327   -1.5995    0.5700 C   0  0  1  0  0  0  0  0  0  0  0  0
    6.0955   -2.4010    1.2604 H   0  0  0  0  0  0  0  0  0  0  0  0
    4.7236   -0.6588    1.0663 C   0  0  0  0  0  0  0  0  0  0  0  0
    3.6909   -0.6790   -0.0375 C   0  0  0  0  0  0  0  0  0  0  0  0
    4.1393   -1.4626   -1.0352 C   0  0  0  0  0  0  0  0  0  0  0  0
    5.4054   -1.9919   -0.7884 N   0  0  0  0  0  0  0  0  0  0  0  0
    6.4780   -1.4282   -1.4114 C   0  0  0  0  0  0  0  0  0  0  0  0
    6.8562   -1.3797   -2.5628 O   0  0  0  0  0  0  0  0  0  0  0  0
    3.3749   -1.7300   -2.2602 C   0  0  0  0  0  0  0  0  0  0  0  0
    3.8408   -2.4492   -3.1226 O   0  0  0  0  0  0  0  0  0  0  0  0
    2.4050    0.0351   -0.0208 C   0  0  0  0  0  0  0  0  0  0  0  0
    1.2033   -0.6808   -0.0131 C   0  0  0  0  0  0  0  0  0  0  0  0
    0.0021   -0.0041    0.0020 C   0  0  0  0  0  0  0  0  0  0  0  0
   -0.0167    1.3799    0.0096 C   0  0  0  0  0  0  0  0  0  0  0  0
    1.1680    2.0955    0.0022 C   0  0  0  0  0  0  0  0  0  0  0  0
    2.3774    1.4336   -0.0130 C   0  0  0  0  0  0  0  0  0  0  0  0
   -1.3341    2.1115    0.0198 C   0  0  0  0  0  0  0  0  0  0  0  0
   -1.7545    2.3410    1.4043 N   0  3  0  0  0  0  0  0  0  0  0  0
   -2.5032    1.4352    2.0053 C   0  0  0  0  0  0  0  0  0  0  0  0
   -2.9159    1.6112    3.3092 C   0  0  0  0  0  0  0  0  0  0  0  0
   -2.5404    2.7702    3.9882 C   0  0  0  0  0  0  0  0  0  0  0  0
   -1.7534    3.7045    3.3151 C   0  0  0  0  0  0  0  0  0  0  0  0
   -1.3782    3.4503    2.0128 C   0  0  0  0  0  0  0  0  0  0  0  0
   -2.9401    2.9885    5.3033 N   0  0  0  0  0  0  0  0  0  0  0  0
   -1.7809    3.2237    6.1735 C   0  0  0  0  0  0  0  0  0  0  0  0
   -2.2626    3.6025    7.5758 C   0  0  0  0  0  0  0  0  0  0  0  0
   -3.1245    2.4685    8.1378 C   0  0  0  0  0  0  0  0  0  0  0  0
   -4.2977    2.2111    7.1882 C   0  0  0  0  0  0  0  0  0  0  0  0
   -3.7570    1.8726    5.7971 C   0  0  0  0  0  0  0  0  0  0  0  0
    5.7532    1.1107   -0.6235 O   0  0  0  0  0  0  0  0  0  0  0  0
    8.1655    0.9587   -1.7459 H   0  0  0  0  0  0  0  0  0  0  0  0
    8.1190    2.3374   -0.6211 H   0  0  0  0  0  0  0  0  0  0  0  0
    9.0764    0.8919   -0.2181 H   0  0  0  0  0  0  0  0  0  0  0  0
    5.1134    0.3497    1.2046 H   0  0  0  0  0  0  0  0  0  0  0  0
    4.2941   -1.0310    1.9964 H   0  0  0  0  0  0  0  0  0  0  0  0
    1.2163   -1.7607   -0.0187 H   0  0  0  0  0  0  0  0  0  0  0  0
   -0.9266   -0.5553    0.0076 H   0  0  0  0  0  0  0  0  0  0  0  0
    1.1450    3.1752    0.0082 H   0  0  0  0  0  0  0  0  0  0  0  0
    3.3010    1.9934   -0.0189 H   0  0  0  0  0  0  0  0  0  0  0  0
   -1.2221    3.0687   -0.4893 H   0  0  0  0  0  0  0  0  0  0  0  0
   -2.0863    1.5126   -0.4937 H   0  0  0  0  0  0  0  0  0  0  0  0
   -2.7931    0.5430    1.4702 H   0  0  0  0  0  0  0  0  0  0  0  0
   -3.5246    0.8640    3.7966 H   0  0  0  0  0  0  0  0  0  0  0  0
   -1.4420    4.6141    3.8071 H   0  0  0  0  0  0  0  0  0  0  0  0
   -0.7688    4.1681    1.4838 H   0  0  0  0  0  0  0  0  0  0  0  0
   -1.1785    2.3170    6.2290 H   0  0  0  0  0  0  0  0  0  0  0  0
   -1.1787    4.0352    5.7649 H   0  0  0  0  0  0  0  0  0  0  0  0
   -2.8536    4.5168    7.5230 H   0  0  0  0  0  0  0  0  0  0  0  0
   -1.4020    3.7618    8.2256 H   0  0  0  0  0  0  0  0  0  0  0  0
   -3.5053    2.7523    9.1188 H   0  0  0  0  0  0  0  0  0  0  0  0
   -2.5230    1.5639    8.2272 H   0  0  0  0  0  0  0  0  0  0  0  0
   -4.9207    3.1035    7.1292 H   0  0  0  0  0  0  0  0  0  0  0  0
   -4.8912    1.3763    7.5610 H   0  0  0  0  0  0  0  0  0  0  0  0
   -4.5901    1.7028    5.1151 H   0  0  0  0  0  0  0  0  0  0  0  0
   -3.1454    0.9722    5.8544 H   0  0  0  0  0  0  0  0  0  0  0  0
    5.6462    2.0714   -0.5948 H   0  0  0  0  0  0  0  0  0  0  0  0
    2.1560   -1.1777   -2.4285 O   0  5  0  0  0  0  0  0  0  0  0  0
  1  2  1  0  0  0  0
  1 36  1  0  0  0  0
  1 37  1  0  0  0  0
  1 38  1  0  0  0  0
  2  3  1  0  0  0  0
  2  4  1  0  0  0  0
  2 35  1  0  0  0  0
  4  5  1  0  0  0  0
  4 12  1  0  0  0  0
  4  6  1  0  0  0  0
  6  7  1  0  0  0  0
  6 11  1  0  0  0  0
  6  8  1  0  0  0  0
  8  9  1  0  0  0  0
  8 39  1  0  0  0  0
  8 40  1  0  0  0  0
  9 10  2  0  0  0  0
  9 16  1  0  0  0  0
 10 11  1  0  0  0  0
 10 14  1  0  0  0  0
 11 12  1  0  0  0  0
 12 13  2  0  0  0  0
 14 15  2  0  0  0  0
 14 62  1  0  0  0  0
 16 21  2  0  0  0  0
 16 17  1  0  0  0  0
 17 18  2  0  0  0  0
 17 41  1  0  0  0  0
 18 19  1  0  0  0  0
 18 42  1  0  0  0  0
 19 20  2  0  0  0  0
 19 22  1  0  0  0  0
 20 21  1  0  0  0  0
 20 43  1  0  0  0  0
 21 44  1  0  0  0  0
 22 23  1  0  0  0  0
 22 45  1  0  0  0  0
 22 46  1  0  0  0  0
 23 28  2  0  0  0  0
 23 24  1  0  0  0  0
 24 25  2  0  0  0  0
 24 47  1  0  0  0  0
 25 26  1  0  0  0  0
 25 48  1  0  0  0  0
 26 27  2  0  0  0  0
 26 29  1  0  0  0  0
 27 28  1  0  0  0  0
 27 49  1  0  0  0  0
 28 50  1  0  0  0  0
 29 34  1  0  0  0  0
 29 30  1  0  0  0  0
 30 31  1  0  0  0  0
 30 51  1  0  0  0  0
 30 52  1  0  0  0  0
 31 32  1  0  0  0  0
 31 53  1  0  0  0  0
 31 54  1  0  0  0  0
 32 33  1  0  0  0  0
 32 55  1  0  0  0  0
 32 56  1  0  0  0  0
 33 34  1  0  0  0  0
 33 57  1  0  0  0  0
 33 58  1  0  0  0  0
 34 59  1  0  0  0  0
 34 60  1  0  0  0  0
 35 61  1  0  0  0  0
M  CHG  2  23   1  62  -1
M  END
$$$$
ZINC00597576
  -OEChem-08230709463D

 56 56  0     1  0  0  0  0  0999 V2000
    5.8269   -1.6574    1.9077 C   0  0  0  0  0  0  0  0  0  0  0  0
    4.5692   -2.3743    1.4126 C   0  0  1  0  0  0  0  0  0  0  0  0
    4.3841   -3.2524    2.0313 H   0  0  0  0  0  0  0  0  0  0  0  0
    3.3724   -1.4254    1.5028 C   0  0  1  0  0  0  0  0  0  0  0  0
    3.5574   -0.5473    0.8841 H   0  0  0  0  0  0  0  0  0  0  0  0
    2.1146   -2.1422    1.0076 C   0  0  0  0  0  0  0  0  0  0  0  0
    3.1365   -0.9117    3.2265 S   0  0  0  0  0  0  0  0  0  0  0  0
    1.9397    0.3776    3.1272 C   0  0  0  0  0  0  0  0  0  0  0  0
    1.4144    0.9294    4.2888 C   0  0  0  0  0  0  0  0  0  0  0  0
    0.4764    1.9398    4.2098 C   0  0  0  0  0  0  0  0  0  0  0  0
    0.0588    2.4038    2.9710 C   0  0  0  0  0  0  0  0  0  0  0  0
    0.5826    1.8535    1.8105 C   0  0  0  0  0  0  0  0  0  0  0  0
    1.5168    0.8394    1.8871 C   0  0  0  0  0  0  0  0  0  0  0  0
    0.1275    2.3583    0.4654 C   0  0  0  0  0  0  0  0  0  0  0  0
    0.8538    1.5896   -0.6402 C   0  0  0  0  0  0  0  0  0  0  0  0
    0.4482    3.8495    0.3452 C   0  0  0  0  0  0  0  0  0  0  0  0
   -1.3816    2.1483    0.3258 C   0  0  0  0  0  0  0  0  0  0  0  0
   -0.8647    3.3993    2.8944 O   0  0  0  0  0  0  0  0  0  0  0  0
   -0.0940    2.5383    5.4697 C   0  0  0  0  0  0  0  0  0  0  0  0
    0.5295    1.8532    6.6874 C   0  0  0  0  0  0  0  0  0  0  0  0
    0.2195    4.0353    5.5106 C   0  0  0  0  0  0  0  0  0  0  0  0
   -1.6102    2.3340    5.4903 C   0  0  0  0  0  0  0  0  0  0  0  0
    4.7549   -2.7789    0.0547 O   0  0  0  0  0  0  0  0  0  0  0  0
    5.3201   -4.0833   -0.0910 C   0  0  0  0  0  0  0  0  0  0  0  0
    5.4707   -4.4048   -1.5555 C   0  0  0  0  0  0  0  0  0  0  0  0
    5.1292   -3.5995   -2.3891 O   0  0  0  0  0  0  0  0  0  0  0  0
    5.6852   -1.3488    2.9435 H   0  0  0  0  0  0  0  0  0  0  0  0
    6.6795   -2.3334    1.8435 H   0  0  0  0  0  0  0  0  0  0  0  0
    6.0119   -0.7793    1.2890 H   0  0  0  0  0  0  0  0  0  0  0  0
    2.2274   -2.3858   -0.0488 H   0  0  0  0  0  0  0  0  0  0  0  0
    1.9707   -3.0595    1.5786 H   0  0  0  0  0  0  0  0  0  0  0  0
    1.2499   -1.4921    1.1403 H   0  0  0  0  0  0  0  0  0  0  0  0
    1.7397    0.5686    5.2534 H   0  0  0  0  0  0  0  0  0  0  0  0
    1.9212    0.4081    0.9833 H   0  0  0  0  0  0  0  0  0  0  0  0
    0.6254    0.5273   -0.5545 H   0  0  0  0  0  0  0  0  0  0  0  0
    1.9289    1.7393   -0.5408 H   0  0  0  0  0  0  0  0  0  0  0  0
    0.5246    1.9548   -1.6131 H   0  0  0  0  0  0  0  0  0  0  0  0
    0.1190    4.2146   -0.6277 H   0  0  0  0  0  0  0  0  0  0  0  0
   -0.0693    4.3971    1.1329 H   0  0  0  0  0  0  0  0  0  0  0  0
    1.5233    3.9991    0.4446 H   0  0  0  0  0  0  0  0  0  0  0  0
   -1.6100    1.0860    0.4115 H   0  0  0  0  0  0  0  0  0  0  0  0
   -1.8990    2.6959    1.1135 H   0  0  0  0  0  0  0  0  0  0  0  0
   -1.7108    2.5134   -0.6470 H   0  0  0  0  0  0  0  0  0  0  0  0
   -1.7791    3.0861    2.8650 H   0  0  0  0  0  0  0  0  0  0  0  0
    1.6097    1.9987    6.6727 H   0  0  0  0  0  0  0  0  0  0  0  0
    0.1169    2.2861    7.5987 H   0  0  0  0  0  0  0  0  0  0  0  0
    0.3061    0.7867    6.6583 H   0  0  0  0  0  0  0  0  0  0  0  0
   -0.2246    4.5233    4.6431 H   0  0  0  0  0  0  0  0  0  0  0  0
   -0.1930    4.4681    6.4219 H   0  0  0  0  0  0  0  0  0  0  0  0
    1.2997    4.1808    5.4959 H   0  0  0  0  0  0  0  0  0  0  0  0
   -1.8335    1.2676    5.4612 H   0  0  0  0  0  0  0  0  0  0  0  0
   -2.0227    2.7669    6.4016 H   0  0  0  0  0  0  0  0  0  0  0  0
   -2.0544    2.8221    4.6228 H   0  0  0  0  0  0  0  0  0  0  0  0
    6.2980   -4.1113    0.3897 H   0  0  0  0  0  0  0  0  0  0  0  0
    4.6642   -4.8177    0.3766 H   0  0  0  0  0  0  0  0  0  0  0  0
    5.9843   -5.5857   -1.9341 O   0  5  0  0  0  0  0  0  0  0  0  0
  1  2  1  0  0  0  0
  1 27  1  0  0  0  0
  1 28  1  0  0  0  0
  1 29  1  0  0  0  0
  2  3  1  0  0  0  0
  2  4  1  0  0  0  0
  2 23  1  0  0  0  0
  4  5  1  0  0  0  0
  4  6  1  0  0  0  0
  4  7  1  0  0  0  0
  6 30  1  0  0  0  0
  6 31  1  0  0  0  0
  6 32  1  0  0  0  0
  7  8  1  0  0  0  0
  8 13  2  0  0  0  0
  8  9  1  0  0  0  0
  9 10  2  0  0  0  0
  9 33  1  0  0  0  0
 10 11  1  0  0  0  0
 10 19  1  0  0  0  0
 11 12  2  0  0  0  0
 11 18  1  0  0  0  0
 12 13  1  0  0  0  0
 12 14  1  0  0  0  0
 13 34  1  0  0  0  0
 14 15  1  0  0  0  0
 14 16  1  0  0  0  0
 14 17  1  0  0  0  0
 15 35  1  0  0  0  0
 15 36  1  0  0  0  0
 15 37  1  0  0  0  0
 16 38  1  0  0  0  0
 16 39  1  0  0  0  0
 16 40  1  0  0  0  0
 17 41  1  0  0  0  0
 17 42  1  0  0  0  0
 17 43  1  0  0  0  0
 18 44  1  0  0  0  0
 19 20  1  0  0  0  0
 19 21  1  0  0  0  0
 19 22  1  0  0  0  0
 20 45  1  0  0  0  0
 20 46  1  0  0  0  0
 20 47  1  0  0  0  0
 21 48  1  0  0  0  0
 21 49  1  0  0  0  0
 21 50  1  0  0  0  0
 22 51  1  0  0  0  0
 22 52  1  0  0  0  0
 22 53  1  0  0  0  0
 23 24  1  0  0  0  0
 24 25  1  0  0  0  0
 24 54  1  0  0  0  0
 24 55  1  0  0  0  0
 25 26  2  0  0  0  0
 25 56  1  0  0  0  0
M  CHG  1  56  -1
M  END
$$$$
ZINC00599327
  -OEChem-08230709463D

 54 55  0     0  0  0  0  0  0999 V2000
   -1.8900    2.0524    6.3625 C   0  0  0  0  0  0  0  0  0  0  0  0
   -2.4040    0.8424    5.6258 C   0  0  0  0  0  0  0  0  0  0  0  0
   -2.4208    0.5782    4.2828 C   0  0  0  0  0  0  0  0  0  0  0  0
   -2.9305   -0.5768    3.8848 N   0  0  0  0  0  0  0  0  0  0  0  0
   -3.4110   -1.4443    4.7421 C   0  0  0  0  0  0  0  0  0  0  0  0
   -3.1631   -0.6445    6.2629 S   0  0  0  0  0  0  0  0  0  0  0  0
   -4.0242   -2.7948    4.4749 C   0  0  0  0  0  0  0  0  0  0  0  0
   -2.9303   -3.8644    4.4940 C   0  0  0  0  0  0  0  0  0  0  0  0
   -3.5435   -5.2148    4.2268 C   0  0  0  0  0  0  0  0  0  0  0  0
   -4.7333   -5.3118    4.0403 O   0  0  0  0  0  0  0  0  0  0  0  0
   -1.8789    1.5532    3.3045 C   0  0  0  0  0  0  0  0  0  0  0  0
   -2.0203    2.9212    3.5304 C   0  0  0  0  0  0  0  0  0  0  0  0
   -1.5151    3.8251    2.6192 C   0  0  0  0  0  0  0  0  0  0  0  0
   -0.8618    3.3736    1.4808 C   0  0  0  0  0  0  0  0  0  0  0  0
   -0.7240    2.0118    1.2503 C   0  0  0  0  0  0  0  0  0  0  0  0
   -1.2271    1.1029    2.1578 C   0  0  0  0  0  0  0  0  0  0  0  0
   -0.0187    1.5258    0.0104 C   0  0  0  0  0  0  0  0  0  0  0  0
    0.0021   -0.0041    0.0020 C   0  0  0  0  0  0  0  0  0  0  0  0
    1.4167    2.0553   -0.0004 C   0  0  0  0  0  0  0  0  0  0  0  0
   -0.7587    2.0326   -1.2291 C   0  0  0  0  0  0  0  0  0  0  0  0
   -0.3605    4.2667    0.5874 O   0  0  0  0  0  0  0  0  0  0  0  0
   -1.6676    5.3045    2.8628 C   0  0  0  0  0  0  0  0  0  0  0  0
   -2.4132    5.5304    4.1796 C   0  0  0  0  0  0  0  0  0  0  0  0
   -0.2843    5.9535    2.9421 C   0  0  0  0  0  0  0  0  0  0  0  0
   -2.4600    5.9315    1.7140 C   0  0  0  0  0  0  0  0  0  0  0  0
   -2.6923    2.7831    6.4653 H   0  0  0  0  0  0  0  0  0  0  0  0
   -1.5409    1.7546    7.3512 H   0  0  0  0  0  0  0  0  0  0  0  0
   -1.0652    2.4946    5.8038 H   0  0  0  0  0  0  0  0  0  0  0  0
   -4.7631   -3.0170    5.2448 H   0  0  0  0  0  0  0  0  0  0  0  0
   -4.5080   -2.7873    3.4982 H   0  0  0  0  0  0  0  0  0  0  0  0
   -2.1914   -3.6421    3.7242 H   0  0  0  0  0  0  0  0  0  0  0  0
   -2.4465   -3.8718    5.4707 H   0  0  0  0  0  0  0  0  0  0  0  0
   -2.5246    3.2731    4.4183 H   0  0  0  0  0  0  0  0  0  0  0  0
   -1.1163    0.0434    1.9798 H   0  0  0  0  0  0  0  0  0  0  0  0
    0.5293   -0.3651    0.8851 H   0  0  0  0  0  0  0  0  0  0  0  0
   -1.0205   -0.3814    0.0098 H   0  0  0  0  0  0  0  0  0  0  0  0
    0.5123   -0.3556   -0.8948 H   0  0  0  0  0  0  0  0  0  0  0  0
    1.9269    1.7038   -0.8972 H   0  0  0  0  0  0  0  0  0  0  0  0
    1.4019    3.1452    0.0056 H   0  0  0  0  0  0  0  0  0  0  0  0
    1.9439    1.6943    0.8826 H   0  0  0  0  0  0  0  0  0  0  0  0
   -1.7813    1.6553   -1.2214 H   0  0  0  0  0  0  0  0  0  0  0  0
   -0.7734    3.1225   -1.2231 H   0  0  0  0  0  0  0  0  0  0  0  0
   -0.2485    1.6811   -2.1259 H   0  0  0  0  0  0  0  0  0  0  0  0
   -0.9841    4.5211   -0.1065 H   0  0  0  0  0  0  0  0  0  0  0  0
   -1.8486    5.0837    4.9980 H   0  0  0  0  0  0  0  0  0  0  0  0
   -2.5234    6.6004    4.3557 H   0  0  0  0  0  0  0  0  0  0  0  0
   -3.3986    5.0680    4.1231 H   0  0  0  0  0  0  0  0  0  0  0  0
    0.2468    5.7926    2.0040 H   0  0  0  0  0  0  0  0  0  0  0  0
   -0.3946    7.0235    3.1182 H   0  0  0  0  0  0  0  0  0  0  0  0
    0.2802    5.5068    3.7605 H   0  0  0  0  0  0  0  0  0  0  0  0
   -3.4455    5.4691    1.6575 H   0  0  0  0  0  0  0  0  0  0  0  0
   -2.5703    7.0015    1.8901 H   0  0  0  0  0  0  0  0  0  0  0  0
   -1.9289    5.7705    0.7758 H   0  0  0  0  0  0  0  0  0  0  0  0
   -2.7679   -6.3099    4.1961 O   0  5  0  0  0  0  0  0  0  0  0  0
  1  2  1  0  0  0  0
  1 26  1  0  0  0  0
  1 27  1  0  0  0  0
  1 28  1  0  0  0  0
  2  6  1  0  0  0  0
  2  3  2  0  0  0  0
  3  4  1  0  0  0  0
  3 11  1  0  0  0  0
  4  5  2  0  0  0  0
  5  6  1  0  0  0  0
  5  7  1  0  0  0  0
  7  8  1  0  0  0  0
  7 29  1  0  0  0  0
  7 30  1  0  0  0  0
  8  9  1  0  0  0  0
  8 31  1  0  0  0  0
  8 32  1  0  0  0  0
  9 10  2  0  0  0  0
  9 54  1  0  0  0  0
 11 16  2  0  0  0  0
 11 12  1  0  0  0  0
 12 13  2  0  0  0  0
 12 33  1  0  0  0  0
 13 14  1  0  0  0  0
 13 22  1  0  0  0  0
 14 15  2  0  0  0  0
 14 21  1  0  0  0  0
 15 16  1  0  0  0  0
 15 17  1  0  0  0  0
 16 34  1  0  0  0  0
 17 18  1  0  0  0  0
 17 19  1  0  0  0  0
 17 20  1  0  0  0  0
 18 35  1  0  0  0  0
 18 36  1  0  0  0  0
 18 37  1  0  0  0  0
 19 38  1  0  0  0  0
 19 39  1  0  0  0  0
 19 40  1  0  0  0  0
 20 41  1  0  0  0  0
 20 42  1  0  0  0  0
 20 43  1  0  0  0  0
 21 44  1  0  0  0  0
 22 23  1  0  0  0  0
 22 24  1  0  0  0  0
 22 25  1  0  0  0  0
 23 45  1  0  0  0  0
 23 46  1  0  0  0  0
 23 47  1  0  0  0  0
 24 48  1  0  0  0  0
 24 49  1  0  0  0  0
 24 50  1  0  0  0  0
 25 51  1  0  0  0  0
 25 52  1  0  0  0  0
 25 53  1  0  0  0  0
M  CHG  1  54  -1
M  END
$$$$
ZINC00600593
  -OEChem-08230709463D

 49 52  0     1  0  0  0  0  0999 V2000
    5.7720    8.5339   -1.1836 C   0  0  0  0  0  0  0  0  0  0  0  0
    4.8901    8.4818    0.0372 C   0  0  0  0  0  0  0  0  0  0  0  0
    5.2923    8.6992    1.3380 C   0  0  0  0  0  0  0  0  0  0  0  0
    4.1875    8.5534    2.1499 C   0  0  0  0  0  0  0  0  0  0  0  0
    3.1463    8.2666    1.3768 N   0  3  0  0  0  0  0  0  0  0  0  0
    3.5884    8.2183    0.0498 N   0  0  0  0  0  0  0  0  0  0  0  0
    2.4638    7.8965   -0.8435 C   0  0  0  0  0  0  0  0  0  0  0  0
    1.1963    8.1748   -0.0075 C   0  0  2  0  0  0  0  0  0  0  0  0
    0.8473    9.1960   -0.1609 H   0  0  0  0  0  0  0  0  0  0  0  0
    1.7040    7.9793    1.4370 C   0  0  0  0  0  0  0  0  0  0  0  0
   -0.1074    6.9816   -0.3985 S   0  0  0  0  0  0  0  0  0  0  0  0
   -1.4334    7.6571    0.5450 C   0  0  0  0  0  0  0  0  0  0  0  0
   -2.0359    7.0587    1.5915 C   0  0  0  0  0  0  0  0  0  0  0  0
   -3.0539    7.8462    2.1539 N   0  0  0  0  0  0  0  0  0  0  0  0
   -3.1908    9.0832    1.3759 C   0  0  2  0  0  0  0  0  0  0  0  0
   -4.1844    9.2636    0.9655 H   0  0  0  0  0  0  0  0  0  0  0  0
   -2.0775    9.0057    0.3176 C   0  0  2  0  0  0  0  0  0  0  0  0
   -1.3510    9.8044    0.4672 H   0  0  0  0  0  0  0  0  0  0  0  0
   -2.6751    9.0819   -1.0888 C   0  0  0  0  0  0  0  0  0  0  0  0
   -2.8314    9.9169    2.6034 C   0  0  2  0  0  0  0  0  0  0  0  0
   -1.8618   10.4112    2.5433 H   0  0  0  0  0  0  0  0  0  0  0  0
   -2.8009    8.5656    3.2663 C   0  0  0  0  0  0  0  0  0  0  0  0
   -2.6122    8.2342    4.4180 O   0  0  0  0  0  0  0  0  0  0  0  0
   -3.9526   10.8355    3.0932 C   0  0  1  0  0  0  0  0  0  0  0  0
   -4.8231   10.2360    3.3597 H   0  0  0  0  0  0  0  0  0  0  0  0
   -3.4745   11.6140    4.3205 C   0  0  0  0  0  0  0  0  0  0  0  0
   -4.3052   11.7521    2.0552 O   0  0  0  0  0  0  0  0  0  0  0  0
   -1.6812    5.7761    2.0719 C   0  0  0  0  0  0  0  0  0  0  0  0
   -2.3325    5.2570    2.9597 O   0  0  0  0  0  0  0  0  0  0  0  0
    4.1645    8.6978    3.6498 C   0  0  0  0  0  0  0  0  0  0  0  0
    6.1880    7.5445   -1.3738 H   0  0  0  0  0  0  0  0  0  0  0  0
    5.1831    8.8519   -2.0440 H   0  0  0  0  0  0  0  0  0  0  0  0
    6.5827    9.2429   -1.0162 H   0  0  0  0  0  0  0  0  0  0  0  0
    6.2944    8.9367    1.6632 H   0  0  0  0  0  0  0  0  0  0  0  0
    2.4846    8.5378   -1.7246 H   0  0  0  0  0  0  0  0  0  0  0  0
    2.5023    6.8478   -1.1381 H   0  0  0  0  0  0  0  0  0  0  0  0
    1.2068    8.6770    2.1109 H   0  0  0  0  0  0  0  0  0  0  0  0
    1.5340    6.9531    1.7626 H   0  0  0  0  0  0  0  0  0  0  0  0
   -3.4114    8.2880   -1.2142 H   0  0  0  0  0  0  0  0  0  0  0  0
   -3.1572   10.0497   -1.2267 H   0  0  0  0  0  0  0  0  0  0  0  0
   -1.8824    8.9623   -1.8273 H   0  0  0  0  0  0  0  0  0  0  0  0
   -2.6040   12.2135    4.0540 H   0  0  0  0  0  0  0  0  0  0  0  0
   -4.2733   12.2684    4.6695 H   0  0  0  0  0  0  0  0  0  0  0  0
   -3.2056   10.9148    5.1123 H   0  0  0  0  0  0  0  0  0  0  0  0
   -3.5768   12.3194    1.7673 H   0  0  0  0  0  0  0  0  0  0  0  0
    3.9531    9.7345    3.9118 H   0  0  0  0  0  0  0  0  0  0  0  0
    3.3901    8.0529    4.0651 H   0  0  0  0  0  0  0  0  0  0  0  0
    5.1338    8.4104    4.0573 H   0  0  0  0  0  0  0  0  0  0  0  0
   -0.6202    5.1279    1.5457 O   0  5  0  0  0  0  0  0  0  0  0  0
  1  2  1  0  0  0  0
  1 31  1  0  0  0  0
  1 32  1  0  0  0  0
  1 33  1  0  0  0  0
  2  6  1  0  0  0  0
  2  3  2  0  0  0  0
  3  4  1  0  0  0  0
  3 34  1  0  0  0  0
  4  5  2  0  0  0  0
  4 30  1  0  0  0  0
  5 10  1  0  0  0  0
  5  6  1  0  0  0  0
  6  7  1  0  0  0  0
  7  8  1  0  0  0  0
  7 35  1  0  0  0  0
  7 36  1  0  0  0  0
  8  9  1  0  0  0  0
  8 10  1  0  0  0  0
  8 11  1  0  0  0  0
 10 37  1  0  0  0  0
 10 38  1  0  0  0  0
 11 12  1  0  0  0  0
 12 17  1  0  0  0  0
 12 13  2  0  0  0  0
 13 14  1  0  0  0  0
 13 28  1  0  0  0  0
 14 22  1  0  0  0  0
 14 15  1  0  0  0  0
 15 16  1  0  0  0  0
 15 17  1  0  0  0  0
 15 20  1  0  0  0  0
 17 18  1  0  0  0  0
 17 19  1  0  0  0  0
 19 39  1  0  0  0  0
 19 40  1  0  0  0  0
 19 41  1  0  0  0  0
 20 21  1  0  0  0  0
 20 22  1  0  0  0  0
 20 24  1  0  0  0  0
 22 23  2  0  0  0  0
 24 25  1  0  0  0  0
 24 26  1  0  0  0  0
 24 27  1  0  0  0  0
 26 42  1  0  0  0  0
 26 43  1  0  0  0  0
 26 44  1  0  0  0  0
 27 45  1  0  0  0  0
 28 29  2  0  0  0  0
 28 49  1  0  0  0  0
 30 46  1  0  0  0  0
 30 47  1  0  0  0  0
 30 48  1  0  0  0  0
M  CHG  2   5   1  49  -1
M  END
$$$$
ZINC00604096
  -OEChem-08230709463D

 64 67  0     1  0  0  0  0  0999 V2000
   -0.8301    6.2315    7.0756 C   0  0  0  0  0  0  0  0  0  0  0  0
   -0.1974    6.7949    5.8016 C   0  0  0  0  0  0  0  0  0  0  0  0
    1.3253    6.6781    5.8936 C   0  0  0  0  0  0  0  0  0  0  0  0
   -0.6761    6.0375    4.6425 N   0  0  0  0  0  0  0  0  0  0  0  0
   -0.4257    4.5968    4.5547 C   0  0  0  0  0  0  0  0  0  0  0  0
   -1.7472    3.8396    4.7004 C   0  0  0  0  0  0  0  0  0  0  0  0
    0.2025    4.2700    3.1983 C   0  0  0  0  0  0  0  0  0  0  0  0
   -1.3468    6.6662    3.6569 C   0  0  0  0  0  0  0  0  0  0  0  0
   -1.4467    7.8782    3.6665 O   0  0  0  0  0  0  0  0  0  0  0  0
   -1.9580    5.8864    2.5696 C   0  0  0  0  0  0  0  0  0  0  0  0
   -3.0614    5.1231    2.6741 C   0  0  0  0  0  0  0  0  0  0  0  0
   -3.3549    4.4540    1.3313 C   0  0  0  0  0  0  0  0  0  0  0  0
   -1.9610    4.4134    0.6887 C   0  0  2  0  0  0  0  0  0  0  0  0
   -1.3468    3.6040    1.0835 H   0  0  0  0  0  0  0  0  0  0  0  0
   -1.4595    5.8094    1.1670 C   0  0  2  0  0  0  0  0  0  0  0  0
    0.0218    5.8930    0.8961 C   0  0  0  0  0  0  0  0  0  0  0  0
    0.2136    5.8300   -0.6329 C   0  0  0  0  0  0  0  0  0  0  0  0
   -0.4262    4.5756   -1.2091 C   0  0  1  0  0  0  0  0  0  0  0  0
    0.0976    3.7207   -0.7815 H   0  0  0  0  0  0  0  0  0  0  0  0
   -1.9074    4.4607   -0.8236 C   0  0  1  0  0  0  0  0  0  0  0  0
   -2.4572    5.3248   -1.1966 H   0  0  0  0  0  0  0  0  0  0  0  0
   -2.4579    3.1812   -1.4533 C   0  0  0  0  0  0  0  0  0  0  0  0
   -2.5373    3.3902   -2.9651 C   0  0  0  0  0  0  0  0  0  0  0  0
   -1.2480    3.9490   -3.5076 C   0  0  0  0  0  0  0  0  0  0  0  0
   -0.2756    4.5081   -2.7018 C   0  0  0  0  0  0  0  0  0  0  0  0
    0.8874    5.0169   -3.2663 C   0  0  0  0  0  0  0  0  0  0  0  0
    1.0907    4.9655   -4.6269 C   0  0  0  0  0  0  0  0  0  0  0  0
    0.1157    4.3961   -5.4482 C   0  0  0  0  0  0  0  0  0  0  0  0
   -1.0513    3.8911   -4.8787 C   0  0  0  0  0  0  0  0  0  0  0  0
    0.3201    4.3290   -6.9097 C   0  0  0  0  0  0  0  0  0  0  0  0
   -0.5310    3.8322   -7.6198 O   0  0  0  0  0  0  0  0  0  0  0  0
   -2.1722    6.8768    0.3342 C   0  0  0  0  0  0  0  0  0  0  0  0
   -0.4740    6.7950    7.9380 H   0  0  0  0  0  0  0  0  0  0  0  0
   -1.9150    6.3146    7.0100 H   0  0  0  0  0  0  0  0  0  0  0  0
   -0.5521    5.1833    7.1864 H   0  0  0  0  0  0  0  0  0  0  0  0
   -0.4754    7.8430    5.6907 H   0  0  0  0  0  0  0  0  0  0  0  0
    1.7760    7.0796    4.9860 H   0  0  0  0  0  0  0  0  0  0  0  0
    1.6814    7.2416    6.7560 H   0  0  0  0  0  0  0  0  0  0  0  0
    1.6033    5.6300    6.0045 H   0  0  0  0  0  0  0  0  0  0  0  0
    0.2546    4.2970    5.3518 H   0  0  0  0  0  0  0  0  0  0  0  0
   -2.1899    3.6887    3.7158 H   0  0  0  0  0  0  0  0  0  0  0  0
   -1.5622    2.8724    5.1677 H   0  0  0  0  0  0  0  0  0  0  0  0
   -2.4309    4.4183    5.3213 H   0  0  0  0  0  0  0  0  0  0  0  0
    0.9909    4.9903    2.9801 H   0  0  0  0  0  0  0  0  0  0  0  0
    0.6254    3.2658    3.2263 H   0  0  0  0  0  0  0  0  0  0  0  0
   -0.5613    4.3212    2.4224 H   0  0  0  0  0  0  0  0  0  0  0  0
   -3.6508    5.0019    3.5710 H   0  0  0  0  0  0  0  0  0  0  0  0
   -3.7476    3.4474    1.4749 H   0  0  0  0  0  0  0  0  0  0  0  0
   -4.0414    5.0570    0.7370 H   0  0  0  0  0  0  0  0  0  0  0  0
    0.5330    5.0543    1.3687 H   0  0  0  0  0  0  0  0  0  0  0  0
    0.4177    6.8328    1.2810 H   0  0  0  0  0  0  0  0  0  0  0  0
    1.2796    5.8253   -0.8604 H   0  0  0  0  0  0  0  0  0  0  0  0
   -0.2453    6.7077   -1.0881 H   0  0  0  0  0  0  0  0  0  0  0  0
   -1.7929    2.3465   -1.2317 H   0  0  0  0  0  0  0  0  0  0  0  0
   -3.4521    2.9745   -1.0571 H   0  0  0  0  0  0  0  0  0  0  0  0
   -2.7432    2.4346   -3.4473 H   0  0  0  0  0  0  0  0  0  0  0  0
   -3.3485    4.0834   -3.1877 H   0  0  0  0  0  0  0  0  0  0  0  0
    1.6407    5.4580   -2.6304 H   0  0  0  0  0  0  0  0  0  0  0  0
    1.9984    5.3634   -5.0563 H   0  0  0  0  0  0  0  0  0  0  0  0
   -1.8086    3.4508   -5.5103 H   0  0  0  0  0  0  0  0  0  0  0  0
   -1.8741    6.7820   -0.7099 H   0  0  0  0  0  0  0  0  0  0  0  0
   -3.2507    6.7427    0.4178 H   0  0  0  0  0  0  0  0  0  0  0  0
   -1.8996    7.8662    0.7015 H   0  0  0  0  0  0  0  0  0  0  0  0
    1.4504    4.8188   -7.4549 O   0  5  0  0  0  0  0  0  0  0  0  0
  1  2  1  0  0  0  0
  1 33  1  0  0  0  0
  1 34  1  0  0  0  0
  1 35  1  0  0  0  0
  2  3  1  0  0  0  0
  2  4  1  0  0  0  0
  2 36  1  0  0  0  0
  3 37  1  0  0  0  0
  3 38  1  0  0  0  0
  3 39  1  0  0  0  0
  4  5  1  0  0  0  0
  4  8  1  0  0  0  0
  5  6  1  0  0  0  0
  5  7  1  0  0  0  0
  5 40  1  0  0  0  0
  6 41  1  0  0  0  0
  6 42  1  0  0  0  0
  6 43  1  0  0  0  0
  7 44  1  0  0  0  0
  7 45  1  0  0  0  0
  7 46  1  0  0  0  0
  8  9  2  0  0  0  0
  8 10  1  0  0  0  0
 10 15  1  0  0  0  0
 10 11  2  0  0  0  0
 11 12  1  0  0  0  0
 11 47  1  0  0  0  0
 12 13  1  0  0  0  0
 12 48  1  0  0  0  0
 12 49  1  0  0  0  0
 13 14  1  0  0  0  0
 13 20  1  0  0  0  0
 13 15  1  0  0  0  0
 15 16  1  0  0  0  0
 15 32  1  0  0  0  0
 16 17  1  0  0  0  0
 16 50  1  0  0  0  0
 16 51  1  0  0  0  0
 17 18  1  0  0  0  0
 17 52  1  0  0  0  0
 17 53  1  0  0  0  0
 18 19  1  0  0  0  0
 18 25  1  0  0  0  0
 18 20  1  0  0  0  0
 20 21  1  0  0  0  0
 20 22  1  0  0  0  0
 22 23  1  0  0  0  0
 22 54  1  0  0  0  0
 22 55  1  0  0  0  0
 23 24  1  0  0  0  0
 23 56  1  0  0  0  0
 23 57  1  0  0  0  0
 24 29  2  0  0  0  0
 24 25  1  0  0  0  0
 25 26  2  0  0  0  0
 26 27  1  0  0  0  0
 26 58  1  0  0  0  0
 27 28  2  0  0  0  0
 27 59  1  0  0  0  0
 28 29  1  0  0  0  0
 28 30  1  0  0  0  0
 29 60  1  0  0  0  0
 30 31  2  0  0  0  0
 30 64  1  0  0  0  0
 32 61  1  0  0  0  0
 32 62  1  0  0  0  0
 32 63  1  0  0  0  0
M  CHG  1  64  -1
M  END
$$$$
ZINC00605501
  -OEChem-08230709463D

 54 56  0     1  0  0  0  0  0999 V2000
   -5.6819    3.9437    1.3273 C   0  0  0  0  0  0  0  0  0  0  0  0
   -4.9222    4.2162    0.0275 C   0  0  0  0  0  0  0  0  0  0  0  0
   -4.6062    5.7097   -0.0750 C   0  0  0  0  0  0  0  0  0  0  0  0
   -5.7834    3.7941   -1.1646 C   0  0  0  0  0  0  0  0  0  0  0  0
   -3.6370    3.4293    0.0223 C   0  0  0  0  0  0  0  0  0  0  0  0
   -3.6743    2.0488    0.1067 C   0  0  0  0  0  0  0  0  0  0  0  0
   -2.5014    1.3225    0.1029 C   0  0  0  0  0  0  0  0  0  0  0  0
   -1.2753    1.9833    0.0133 C   0  0  0  0  0  0  0  0  0  0  0  0
   -1.2445    3.3765   -0.0662 C   0  0  0  0  0  0  0  0  0  0  0  0
   -2.4249    4.0905   -0.0663 C   0  0  0  0  0  0  0  0  0  0  0  0
   -0.0144    1.2113    0.0087 C   0  0  0  0  0  0  0  0  0  0  0  0
   -0.0447   -0.0017   -0.0631 O   0  0  0  0  0  0  0  0  0  0  0  0
    1.1688    1.8529    0.0785 N   0  0  0  0  0  0  0  0  0  0  0  0
    1.3549    3.3112    0.0647 C   0  0  0  0  0  0  0  0  0  0  0  0
    2.8690    3.5811    0.1924 C   0  0  0  0  0  0  0  0  0  0  0  0
    3.4013    2.2755    0.8398 C   0  0  1  0  0  0  0  0  0  0  0  0
    3.2663    2.2924    1.9213 H   0  0  0  0  0  0  0  0  0  0  0  0
    2.4903    1.2087    0.1879 C   0  0  0  0  0  0  0  0  0  0  0  0
    4.8693    2.0424    0.4770 C   0  0  0  0  0  0  0  0  0  0  0  0
    5.3583    0.8991    1.1812 O   0  0  0  0  0  0  0  0  0  0  0  0
    6.6532    0.5529    0.9700 C   0  0  0  0  0  0  0  0  0  0  0  0
    7.4362    1.2981    0.0958 C   0  0  0  0  0  0  0  0  0  0  0  0
    8.7521    0.9536   -0.1169 C   0  0  0  0  0  0  0  0  0  0  0  0
    9.2974   -0.1541    0.5388 C   0  0  0  0  0  0  0  0  0  0  0  0
    8.5049   -0.9040    1.4127 C   0  0  0  0  0  0  0  0  0  0  0  0
    7.1915   -0.5493    1.6241 C   0  0  0  0  0  0  0  0  0  0  0  0
   10.7046   -0.5306    0.3089 C   0  0  0  0  0  0  0  0  0  0  0  0
   11.1767   -1.4939    0.8794 O   0  0  0  0  0  0  0  0  0  0  0  0
   -5.0683    4.2444    2.1766 H   0  0  0  0  0  0  0  0  0  0  0  0
   -6.6115    4.5128    1.3310 H   0  0  0  0  0  0  0  0  0  0  0  0
   -5.9070    2.8797    1.4003 H   0  0  0  0  0  0  0  0  0  0  0  0
   -4.0650    5.9038   -1.0011 H   0  0  0  0  0  0  0  0  0  0  0  0
   -5.5358    6.2789   -0.0713 H   0  0  0  0  0  0  0  0  0  0  0  0
   -3.9927    6.0104    0.7742 H   0  0  0  0  0  0  0  0  0  0  0  0
   -6.0086    2.7301   -1.0916 H   0  0  0  0  0  0  0  0  0  0  0  0
   -6.7130    4.3633   -1.1609 H   0  0  0  0  0  0  0  0  0  0  0  0
   -5.2422    3.9883   -2.0907 H   0  0  0  0  0  0  0  0  0  0  0  0
   -4.6238    1.5387    0.1760 H   0  0  0  0  0  0  0  0  0  0  0  0
   -2.5319    0.2449    0.1688 H   0  0  0  0  0  0  0  0  0  0  0  0
   -0.2988    3.8940   -0.1312 H   0  0  0  0  0  0  0  0  0  0  0  0
   -2.4026    5.1684   -0.1312 H   0  0  0  0  0  0  0  0  0  0  0  0
    0.9826    3.7235   -0.8731 H   0  0  0  0  0  0  0  0  0  0  0  0
    0.8261    3.7604    0.9053 H   0  0  0  0  0  0  0  0  0  0  0  0
    3.3173    3.7355   -0.7891 H   0  0  0  0  0  0  0  0  0  0  0  0
    3.0547    4.4370    0.8414 H   0  0  0  0  0  0  0  0  0  0  0  0
    2.4295    0.3232    0.8206 H   0  0  0  0  0  0  0  0  0  0  0  0
    2.8666    0.9447   -0.8005 H   0  0  0  0  0  0  0  0  0  0  0  0
    4.9558    1.8726   -0.5962 H   0  0  0  0  0  0  0  0  0  0  0  0
    5.4557    2.9183    0.7546 H   0  0  0  0  0  0  0  0  0  0  0  0
    7.0129    2.1510   -0.4137 H   0  0  0  0  0  0  0  0  0  0  0  0
    9.3609    1.5355   -0.7931 H   0  0  0  0  0  0  0  0  0  0  0  0
    8.9224   -1.7603    1.9215 H   0  0  0  0  0  0  0  0  0  0  0  0
    6.5785   -1.1284    2.2988 H   0  0  0  0  0  0  0  0  0  0  0  0
   11.4668    0.1936   -0.5338 O   0  5  0  0  0  0  0  0  0  0  0  0
  1  2  1  0  0  0  0
  1 29  1  0  0  0  0
  1 30  1  0  0  0  0
  1 31  1  0  0  0  0
  2  3  1  0  0  0  0
  2  4  1  0  0  0  0
  2  5  1  0  0  0  0
  3 32  1  0  0  0  0
  3 33  1  0  0  0  0
  3 34  1  0  0  0  0
  4 35  1  0  0  0  0
  4 36  1  0  0  0  0
  4 37  1  0  0  0  0
  5 10  2  0  0  0  0
  5  6  1  0  0  0  0
  6  7  2  0  0  0  0
  6 38  1  0  0  0  0
  7  8  1  0  0  0  0
  7 39  1  0  0  0  0
  8  9  2  0  0  0  0
  8 11  1  0  0  0  0
  9 10  1  0  0  0  0
  9 40  1  0  0  0  0
 10 41  1  0  0  0  0
 11 12  2  0  0  0  0
 11 13  1  0  0  0  0
 13 18  1  0  0  0  0
 13 14  1  0  0  0  0
 14 15  1  0  0  0  0
 14 42  1  0  0  0  0
 14 43  1  0  0  0  0
 15 16  1  0  0  0  0
 15 44  1  0  0  0  0
 15 45  1  0  0  0  0
 16 17  1  0  0  0  0
 16 18  1  0  0  0  0
 16 19  1  0  0  0  0
 18 46  1  0  0  0  0
 18 47  1  0  0  0  0
 19 20  1  0  0  0  0
 19 48  1  0  0  0  0
 19 49  1  0  0  0  0
 20 21  1  0  0  0  0
 21 26  2  0  0  0  0
 21 22  1  0  0  0  0
 22 23  2  0  0  0  0
 22 50  1  0  0  0  0
 23 24  1  0  0  0  0
 23 51  1  0  0  0  0
 24 25  2  0  0  0  0
 24 27  1  0  0  0  0
 25 26  1  0  0  0  0
 25 52  1  0  0  0  0
 26 53  1  0  0  0  0
 27 28  2  0  0  0  0
 27 54  1  0  0  0  0
M  CHG  1  54  -1
M  END
$$$$
ZINC00627291
  -OEChem-08230709463D

 54 56  0     1  0  0  0  0  0999 V2000
   -1.4786    9.3195    0.1521 C   0  0  0  0  0  0  0  0  0  0  0  0
   -2.5229    9.9930    0.7651 C   0  0  0  0  0  0  0  0  0  0  0  0
   -3.5492    9.2923    1.3658 C   0  0  0  0  0  0  0  0  0  0  0  0
   -3.5407    7.9038    1.3590 C   0  0  0  0  0  0  0  0  0  0  0  0
   -2.4854    7.2189    0.7389 C   0  0  0  0  0  0  0  0  0  0  0  0
   -1.4514    7.9418    0.1394 C   0  0  0  0  0  0  0  0  0  0  0  0
   -2.4645    5.7439    0.7253 C   0  0  0  0  0  0  0  0  0  0  0  0
   -3.3145    5.1182    1.3290 O   0  0  0  0  0  0  0  0  0  0  0  0
   -1.5032    5.0898    0.0437 N   0  0  0  0  0  0  0  0  0  0  0  0
   -1.4824    3.6250    0.0301 C   0  0  0  0  0  0  0  0  0  0  0  0
   -0.7620    3.1368   -1.2283 C   0  0  0  0  0  0  0  0  0  0  0  0
   -0.7403    1.6070   -1.2424 C   0  0  0  0  0  0  0  0  0  0  0  0
   -0.0040    1.0959   -0.0024 C   0  0  0  0  0  0  0  0  0  0  0  0
   -0.7244    1.5842    1.2559 C   0  0  0  0  0  0  0  0  0  0  0  0
   -0.7461    3.1139    1.2701 C   0  0  0  0  0  0  0  0  0  0  0  0
   -4.5749    7.1947    1.9654 N   0  0  0  0  0  0  0  0  0  0  0  0
   -5.8334    7.6759    1.9299 C   0  0  0  0  0  0  0  0  0  0  0  0
   -6.0825    8.6753    1.2896 O   0  0  0  0  0  0  0  0  0  0  0  0
   -6.9308    6.9721    2.6858 C   0  0  1  0  0  0  0  0  0  0  0  0
   -7.0288    5.9511    2.3172 H   0  0  0  0  0  0  0  0  0  0  0  0
   -6.5873    6.9454    4.1765 C   0  0  0  0  0  0  0  0  0  0  0  0
   -6.4497    8.3787    4.6939 C   0  0  0  0  0  0  0  0  0  0  0  0
   -7.7698    9.1242    4.4880 C   0  0  0  0  0  0  0  0  0  0  0  0
   -8.1134    9.1509    2.9973 C   0  0  0  0  0  0  0  0  0  0  0  0
   -8.2510    7.7176    2.4799 C   0  0  1  0  0  0  0  0  0  0  0  0
   -9.0447    7.2086    3.0266 H   0  0  0  0  0  0  0  0  0  0  0  0
   -8.5893    7.7439    1.0116 C   0  0  0  0  0  0  0  0  0  0  0  0
   -7.8504    7.2201    0.2119 O   0  0  0  0  0  0  0  0  0  0  0  0
   -0.6802    9.8770   -0.3148 H   0  0  0  0  0  0  0  0  0  0  0  0
   -2.5337   11.0729    0.7733 H   0  0  0  0  0  0  0  0  0  0  0  0
   -4.3594    9.8245    1.8419 H   0  0  0  0  0  0  0  0  0  0  0  0
   -0.6331    7.4216   -0.3362 H   0  0  0  0  0  0  0  0  0  0  0  0
   -0.8251    5.5890   -0.4380 H   0  0  0  0  0  0  0  0  0  0  0  0
   -2.5048    3.2471    0.0332 H   0  0  0  0  0  0  0  0  0  0  0  0
    0.2604    3.5147   -1.2313 H   0  0  0  0  0  0  0  0  0  0  0  0
   -1.2866    3.5009   -2.1116 H   0  0  0  0  0  0  0  0  0  0  0  0
   -0.2271    1.2592   -2.1389 H   0  0  0  0  0  0  0  0  0  0  0  0
   -1.7627    1.2291   -1.2393 H   0  0  0  0  0  0  0  0  0  0  0  0
    0.0115    0.0061   -0.0125 H   0  0  0  0  0  0  0  0  0  0  0  0
    1.0184    1.4738   -0.0055 H   0  0  0  0  0  0  0  0  0  0  0  0
   -1.7468    1.2063    1.2590 H   0  0  0  0  0  0  0  0  0  0  0  0
   -0.1998    1.2201    2.1393 H   0  0  0  0  0  0  0  0  0  0  0  0
    0.2763    3.4919    1.2670 H   0  0  0  0  0  0  0  0  0  0  0  0
   -1.2593    3.4618    2.1666 H   0  0  0  0  0  0  0  0  0  0  0  0
   -4.3894    6.3545    2.4133 H   0  0  0  0  0  0  0  0  0  0  0  0
   -7.3810    6.4364    4.7232 H   0  0  0  0  0  0  0  0  0  0  0  0
   -5.6468    6.4143    4.3231 H   0  0  0  0  0  0  0  0  0  0  0  0
   -5.6559    8.8877    4.1472 H   0  0  0  0  0  0  0  0  0  0  0  0
   -6.2049    8.3597    5.7559 H   0  0  0  0  0  0  0  0  0  0  0  0
   -7.6718   10.1453    4.8566 H   0  0  0  0  0  0  0  0  0  0  0  0
   -8.5636    8.6152    5.0347 H   0  0  0  0  0  0  0  0  0  0  0  0
   -7.3196    9.6599    2.4506 H   0  0  0  0  0  0  0  0  0  0  0  0
   -9.0539    9.6820    2.8507 H   0  0  0  0  0  0  0  0  0  0  0  0
   -9.7116    8.3492    0.5923 O   0  5  0  0  0  0  0  0  0  0  0  0
  1  6  2  0  0  0  0
  1  2  1  0  0  0  0
  1 29  1  0  0  0  0
  2  3  2  0  0  0  0
  2 30  1  0  0  0  0
  3  4  1  0  0  0  0
  3 31  1  0  0  0  0
  4  5  2  0  0  0  0
  4 16  1  0  0  0  0
  5  6  1  0  0  0  0
  5  7  1  0  0  0  0
  6 32  1  0  0  0  0
  7  8  2  0  0  0  0
  7  9  1  0  0  0  0
  9 10  1  0  0  0  0
  9 33  1  0  0  0  0
 10 15  1  0  0  0  0
 10 11  1  0  0  0  0
 10 34  1  0  0  0  0
 11 12  1  0  0  0  0
 11 35  1  0  0  0  0
 11 36  1  0  0  0  0
 12 13  1  0  0  0  0
 12 37  1  0  0  0  0
 12 38  1  0  0  0  0
 13 14  1  0  0  0  0
 13 39  1  0  0  0  0
 13 40  1  0  0  0  0
 14 15  1  0  0  0  0
 14 41  1  0  0  0  0
 14 42  1  0  0  0  0
 15 43  1  0  0  0  0
 15 44  1  0  0  0  0
 16 17  1  0  0  0  0
 16 45  1  0  0  0  0
 17 18  2  0  0  0  0
 17 19  1  0  0  0  0
 19 20  1  0  0  0  0
 19 25  1  0  0  0  0
 19 21  1  0  0  0  0
 21 22  1  0  0  0  0
 21 46  1  0  0  0  0
 21 47  1  0  0  0  0
 22 23  1  0  0  0  0
 22 48  1  0  0  0  0
 22 49  1  0  0  0  0
 23 24  1  0  0  0  0
 23 50  1  0  0  0  0
 23 51  1  0  0  0  0
 24 25  1  0  0  0  0
 24 52  1  0  0  0  0
 24 53  1  0  0  0  0
 25 26  1  0  0  0  0
 25 27  1  0  0  0  0
 27 28  2  0  0  0  0
 27 54  1  0  0  0  0
M  CHG  1  54  -1
M  END
$$$$
ZINC00659067
  -OEChem-08230709463D

 54 56  0     1  0  0  0  0  0999 V2000
   -2.5722   11.2572   -7.3409 C   0  0  0  0  0  0  0  0  0  0  0  0
   -2.1721   10.2445   -6.2991 C   0  0  0  0  0  0  0  0  0  0  0  0
   -2.5034   10.4533   -4.9723 C   0  0  0  0  0  0  0  0  0  0  0  0
   -2.1405    9.5290   -4.0140 C   0  0  0  0  0  0  0  0  0  0  0  0
   -1.4382    8.3833   -4.3852 C   0  0  0  0  0  0  0  0  0  0  0  0
   -1.1016    8.1813   -5.7230 C   0  0  0  0  0  0  0  0  0  0  0  0
   -1.4753    9.1095   -6.6733 C   0  0  0  0  0  0  0  0  0  0  0  0
   -1.0455    7.3867   -3.3606 C   0  0  0  0  0  0  0  0  0  0  0  0
   -0.4103    7.7524   -2.2181 C   0  0  0  0  0  0  0  0  0  0  0  0
   -0.1785    6.2067   -1.3654 S   0  0  0  0  0  0  0  0  0  0  0  0
   -0.9081    5.1290   -2.5067 C   0  0  0  0  0  0  0  0  0  0  0  0
   -1.3159    5.9717   -3.5323 C   0  0  0  0  0  0  0  0  0  0  0  0
   -1.9888    5.4583   -4.7255 C   0  0  0  0  0  0  0  0  0  0  0  0
   -3.2019    5.3693   -4.7488 O   0  0  0  0  0  0  0  0  0  0  0  0
   -1.2642    5.0836   -5.7999 O   0  0  0  0  0  0  0  0  0  0  0  0
   -1.9986    4.5838   -6.9484 C   0  0  0  0  0  0  0  0  0  0  0  0
   -1.2256    4.9079   -8.2284 C   0  0  0  0  0  0  0  0  0  0  0  0
   -2.1683    3.0682   -6.8251 C   0  0  0  0  0  0  0  0  0  0  0  0
   -1.0467    3.7530   -2.4204 N   0  0  0  0  0  0  0  0  0  0  0  0
   -0.5801    3.0952   -1.3406 C   0  0  0  0  0  0  0  0  0  0  0  0
   -0.0389    3.7075   -0.4445 O   0  0  0  0  0  0  0  0  0  0  0  0
   -0.7308    1.5987   -1.2467 C   0  0  1  0  0  0  0  0  0  0  0  0
   -0.8770    1.1789   -2.2419 H   0  0  0  0  0  0  0  0  0  0  0  0
    0.5239    0.9945   -0.6127 C   0  0  0  0  0  0  0  0  0  0  0  0
    0.5927    1.3550    0.8424 C   0  0  0  0  0  0  0  0  0  0  0  0
   -0.4138    1.7901    1.5303 C   0  0  0  0  0  0  0  0  0  0  0  0
   -1.7880    2.0039    0.9664 C   0  0  0  0  0  0  0  0  0  0  0  0
   -1.9353    1.2564   -0.3607 C   0  0  1  0  0  0  0  0  0  0  0  0
   -1.9605    0.1825   -0.1755 H   0  0  0  0  0  0  0  0  0  0  0  0
   -3.2094    1.6826   -1.0435 C   0  0  0  0  0  0  0  0  0  0  0  0
   -3.1661    2.1997   -2.1347 O   0  0  0  0  0  0  0  0  0  0  0  0
   -1.7812   11.9994   -7.4488 H   0  0  0  0  0  0  0  0  0  0  0  0
   -2.7309   10.7540   -8.2947 H   0  0  0  0  0  0  0  0  0  0  0  0
   -3.4939   11.7507   -7.0327 H   0  0  0  0  0  0  0  0  0  0  0  0
   -3.0475   11.3412   -4.6860 H   0  0  0  0  0  0  0  0  0  0  0  0
   -2.4003    9.6927   -2.9786 H   0  0  0  0  0  0  0  0  0  0  0  0
   -0.5538    7.2978   -6.0157 H   0  0  0  0  0  0  0  0  0  0  0  0
   -1.2194    8.9518   -7.7107 H   0  0  0  0  0  0  0  0  0  0  0  0
   -0.1165    8.7426   -1.9023 H   0  0  0  0  0  0  0  0  0  0  0  0
   -2.9796    5.0573   -6.9867 H   0  0  0  0  0  0  0  0  0  0  0  0
   -0.2446    4.4343   -8.1902 H   0  0  0  0  0  0  0  0  0  0  0  0
   -1.7769    4.5326   -9.0906 H   0  0  0  0  0  0  0  0  0  0  0  0
   -1.1047    5.9876   -8.3163 H   0  0  0  0  0  0  0  0  0  0  0  0
   -2.7190    2.8373   -5.9132 H   0  0  0  0  0  0  0  0  0  0  0  0
   -2.7195    2.6930   -7.6873 H   0  0  0  0  0  0  0  0  0  0  0  0
   -1.1873    2.5947   -6.7869 H   0  0  0  0  0  0  0  0  0  0  0  0
   -1.4796    3.2632   -3.1371 H   0  0  0  0  0  0  0  0  0  0  0  0
    1.4073    1.3790   -1.1224 H   0  0  0  0  0  0  0  0  0  0  0  0
    0.4911   -0.0902   -0.7150 H   0  0  0  0  0  0  0  0  0  0  0  0
    1.5412    1.2450    1.3471 H   0  0  0  0  0  0  0  0  0  0  0  0
   -0.2547    2.0134    2.5749 H   0  0  0  0  0  0  0  0  0  0  0  0
   -1.9489    3.0691    0.8008 H   0  0  0  0  0  0  0  0  0  0  0  0
   -2.5287    1.6324    1.6745 H   0  0  0  0  0  0  0  0  0  0  0  0
   -4.3921    1.4879   -0.4395 O   0  5  0  0  0  0  0  0  0  0  0  0
  1  2  1  0  0  0  0
  1 32  1  0  0  0  0
  1 33  1  0  0  0  0
  1 34  1  0  0  0  0
  2  7  2  0  0  0  0
  2  3  1  0  0  0  0
  3  4  2  0  0  0  0
  3 35  1  0  0  0  0
  4  5  1  0  0  0  0
  4 36  1  0  0  0  0
  5  6  2  0  0  0  0
  5  8  1  0  0  0  0
  6  7  1  0  0  0  0
  6 37  1  0  0  0  0
  7 38  1  0  0  0  0
  8 12  1  0  0  0  0
  8  9  2  0  0  0  0
  9 10  1  0  0  0  0
  9 39  1  0  0  0  0
 10 11  1  0  0  0  0
 11 12  2  0  0  0  0
 11 19  1  0  0  0  0
 12 13  1  0  0  0  0
 13 14  2  0  0  0  0
 13 15  1  0  0  0  0
 15 16  1  0  0  0  0
 16 17  1  0  0  0  0
 16 18  1  0  0  0  0
 16 40  1  0  0  0  0
 17 41  1  0  0  0  0
 17 42  1  0  0  0  0
 17 43  1  0  0  0  0
 18 44  1  0  0  0  0
 18 45  1  0  0  0  0
 18 46  1  0  0  0  0
 19 20  1  0  0  0  0
 19 47  1  0  0  0  0
 20 21  2  0  0  0  0
 20 22  1  0  0  0  0
 22 23  1  0  0  0  0
 22 28  1  0  0  0  0
 22 24  1  0  0  0  0
 24 25  1  0  0  0  0
 24 48  1  0  0  0  0
 24 49  1  0  0  0  0
 25 26  2  0  0  0  0
 25 50  1  0  0  0  0
 26 27  1  0  0  0  0
 26 51  1  0  0  0  0
 27 28  1  0  0  0  0
 27 52  1  0  0  0  0
 27 53  1  0  0  0  0
 28 29  1  0  0  0  0
 28 30  1  0  0  0  0
 30 31  2  0  0  0  0
 30 54  1  0  0  0  0
M  CHG  1  54  -1
M  END
$$$$
ZINC00834454
  -OEChem-08230709463D

 57 60  0     1  0  0  0  0  0999 V2000
    2.7668    0.0774   -3.7094 C   0  0  0  0  0  0  0  0  0  0  0  0
    2.9121    0.1288   -2.1871 C   0  0  2  0  0  0  0  0  0  0  0  0
    4.3256   -0.3505   -1.8518 C   0  0  0  0  0  0  0  0  0  0  0  0
    4.5595   -1.7024   -2.5280 C   0  0  0  0  0  0  0  0  0  0  0  0
    3.4405   -2.6602   -2.2515 C   0  0  0  0  0  0  0  0  0  0  0  0
    2.2149   -2.2820   -1.8394 C   0  0  0  0  0  0  0  0  0  0  0  0
    1.9344   -0.8537   -1.6138 C   0  0  0  0  0  0  0  0  0  0  0  0
    0.8556   -0.5034   -0.9270 C   0  0  0  0  0  0  0  0  0  0  0  0
    0.5682    0.9454   -0.6265 C   0  0  0  0  0  0  0  0  0  0  0  0
    1.9152    1.6617   -0.4560 C   0  0  0  0  0  0  0  0  0  0  0  0
    2.6836    1.5621   -1.7720 C   0  0  2  0  0  0  0  0  0  0  0  0
    3.6485    2.0558   -1.6571 H   0  0  0  0  0  0  0  0  0  0  0  0
    1.9211    2.2456   -2.8197 N   0  0  0  0  0  0  0  0  0  0  0  0
    2.1541    3.5467   -3.0827 C   0  0  0  0  0  0  0  0  0  0  0  0
    2.9969    4.1531   -2.4506 O   0  0  0  0  0  0  0  0  0  0  0  0
    1.3846    4.2365   -4.1401 C   0  0  0  0  0  0  0  0  0  0  0  0
    0.4201    3.5410   -4.8715 C   0  0  0  0  0  0  0  0  0  0  0  0
   -0.2995    4.1890   -5.8542 C   0  0  0  0  0  0  0  0  0  0  0  0
   -0.0613    5.5240   -6.1250 C   0  0  0  0  0  0  0  0  0  0  0  0
    0.8993    6.2225   -5.4066 C   0  0  0  0  0  0  0  0  0  0  0  0
    1.6237    5.5831   -4.4144 C   0  0  0  0  0  0  0  0  0  0  0  0
    1.1295    7.5343   -5.6774 O   0  0  0  0  0  0  0  0  0  0  0  0
    0.2695    8.1604   -6.6316 C   0  0  0  0  0  0  0  0  0  0  0  0
    0.8058    7.9276   -8.0591 C   0  0  0  0  0  0  0  0  0  0  0  0
    0.5072    9.2567   -8.7978 C   0  0  0  0  0  0  0  0  0  0  0  0
    0.7840   10.3232   -7.7091 C   0  0  0  0  0  0  0  0  0  0  0  0
    0.2551    9.6829   -6.4091 C   0  0  0  0  0  0  0  0  0  0  0  0
    3.6860   -4.0447   -2.4338 C   0  0  0  0  0  0  0  0  0  0  0  0
    2.8023   -4.8526   -2.2190 O   0  0  0  0  0  0  0  0  0  0  0  0
    1.7243    0.2439   -3.9806 H   0  0  0  0  0  0  0  0  0  0  0  0
    3.3876    0.8518   -4.1599 H   0  0  0  0  0  0  0  0  0  0  0  0
    3.0849   -0.9000   -4.0720 H   0  0  0  0  0  0  0  0  0  0  0  0
    4.4281   -0.4593   -0.7721 H   0  0  0  0  0  0  0  0  0  0  0  0
    5.0536    0.3728   -2.2191 H   0  0  0  0  0  0  0  0  0  0  0  0
    5.4920   -2.1285   -2.1579 H   0  0  0  0  0  0  0  0  0  0  0  0
    4.6412   -1.5521   -3.6045 H   0  0  0  0  0  0  0  0  0  0  0  0
    1.4441   -3.0204   -1.6753 H   0  0  0  0  0  0  0  0  0  0  0  0
    0.1747   -1.2656   -0.5782 H   0  0  0  0  0  0  0  0  0  0  0  0
    0.0143    1.3914   -1.4526 H   0  0  0  0  0  0  0  0  0  0  0  0
   -0.0113    1.0242    0.2933 H   0  0  0  0  0  0  0  0  0  0  0  0
    1.7450    2.7096   -0.2087 H   0  0  0  0  0  0  0  0  0  0  0  0
    2.4867    1.1843    0.3399 H   0  0  0  0  0  0  0  0  0  0  0  0
    1.2486    1.7617   -3.3241 H   0  0  0  0  0  0  0  0  0  0  0  0
    0.2348    2.4971   -4.6656 H   0  0  0  0  0  0  0  0  0  0  0  0
   -1.0480    3.6508   -6.4168 H   0  0  0  0  0  0  0  0  0  0  0  0
   -0.6251    6.0251   -6.8980 H   0  0  0  0  0  0  0  0  0  0  0  0
    2.3711    6.1255   -3.8545 H   0  0  0  0  0  0  0  0  0  0  0  0
   -0.7406    7.7605   -6.5424 H   0  0  0  0  0  0  0  0  0  0  0  0
    1.8787    7.7363   -8.0371 H   0  0  0  0  0  0  0  0  0  0  0  0
    0.2794    7.0997   -8.5341 H   0  0  0  0  0  0  0  0  0  0  0  0
   -0.5336    9.2939   -9.1192 H   0  0  0  0  0  0  0  0  0  0  0  0
    1.1772    9.3890   -9.6473 H   0  0  0  0  0  0  0  0  0  0  0  0
    0.2418   11.2428   -7.9294 H   0  0  0  0  0  0  0  0  0  0  0  0
    1.8528   10.5214   -7.6294 H   0  0  0  0  0  0  0  0  0  0  0  0
   -0.7620   10.0220   -6.2128 H   0  0  0  0  0  0  0  0  0  0  0  0
    0.9035    9.9442   -5.5728 H   0  0  0  0  0  0  0  0  0  0  0  0
    4.8999   -4.4661   -2.8456 O   0  5  0  0  0  0  0  0  0  0  0  0
  1  2  1  0  0  0  0
  1 30  1  0  0  0  0
  1 31  1  0  0  0  0
  1 32  1  0  0  0  0
  2  7  1  0  0  0  0
  2 11  1  0  0  0  0
  2  3  1  0  0  0  0
  3  4  1  0  0  0  0
  3 33  1  0  0  0  0
  3 34  1  0  0  0  0
  4  5  1  0  0  0  0
  4 35  1  0  0  0  0
  4 36  1  0  0  0  0
  5  6  2  0  0  0  0
  5 28  1  0  0  0  0
  6  7  1  0  0  0  0
  6 37  1  0  0  0  0
  7  8  2  0  0  0  0
  8  9  1  0  0  0  0
  8 38  1  0  0  0  0
  9 10  1  0  0  0  0
  9 39  1  0  0  0  0
  9 40  1  0  0  0  0
 10 11  1  0  0  0  0
 10 41  1  0  0  0  0
 10 42  1  0  0  0  0
 11 12  1  0  0  0  0
 11 13  1  0  0  0  0
 13 14  1  0  0  0  0
 13 43  1  0  0  0  0
 14 15  2  0  0  0  0
 14 16  1  0  0  0  0
 16 21  2  0  0  0  0
 16 17  1  0  0  0  0
 17 18  2  0  0  0  0
 17 44  1  0  0  0  0
 18 19  1  0  0  0  0
 18 45  1  0  0  0  0
 19 20  2  0  0  0  0
 19 46  1  0  0  0  0
 20 21  1  0  0  0  0
 20 22  1  0  0  0  0
 21 47  1  0  0  0  0
 22 23  1  0  0  0  0
 23 27  1  0  0  0  0
 23 24  1  0  0  0  0
 23 48  1  0  0  0  0
 24 25  1  0  0  0  0
 24 49  1  0  0  0  0
 24 50  1  0  0  0  0
 25 26  1  0  0  0  0
 25 51  1  0  0  0  0
 25 52  1  0  0  0  0
 26 27  1  0  0  0  0
 26 53  1  0  0  0  0
 26 54  1  0  0  0  0
 27 55  1  0  0  0  0
 27 56  1  0  0  0  0
 28 29  2  0  0  0  0
 28 57  1  0  0  0  0
M  CHG  1  57  -1
M  END
$$$$
ZINC00834457
  -OEChem-08230709463D

 62 65  0     1  0  0  0  0  0999 V2000
    4.0268   -3.1640   -2.2726 C   0  0  0  0  0  0  0  0  0  0  0  0
    5.0180   -3.6930   -1.2340 C   0  0  2  0  0  0  0  0  0  0  0  0
    6.3643   -3.8335   -1.9471 C   0  0  0  0  0  0  0  0  0  0  0  0
    6.1670   -4.6683   -3.2131 C   0  0  0  0  0  0  0  0  0  0  0  0
    5.4285   -5.9404   -2.9250 C   0  0  0  0  0  0  0  0  0  0  0  0
    4.6694   -6.1323   -1.8290 C   0  0  0  0  0  0  0  0  0  0  0  0
    4.5564   -5.0600   -0.8251 C   0  0  0  0  0  0  0  0  0  0  0  0
    4.1026   -5.3539    0.3857 C   0  0  0  0  0  0  0  0  0  0  0  0
    4.0717   -4.3144    1.4761 C   0  0  0  0  0  0  0  0  0  0  0  0
    5.2538   -3.3650    1.2499 C   0  0  0  0  0  0  0  0  0  0  0  0
    5.0786   -2.6880   -0.1078 C   0  0  2  0  0  0  0  0  0  0  0  0
    5.9177   -2.0138   -0.2788 H   0  0  0  0  0  0  0  0  0  0  0  0
    3.8373   -1.9101   -0.0958 N   0  0  0  0  0  0  0  0  0  0  0  0
    3.8831   -0.5664   -0.1904 C   0  0  0  0  0  0  0  0  0  0  0  0
    4.9545   -0.0001   -0.2857 O   0  0  0  0  0  0  0  0  0  0  0  0
    2.6304    0.2187   -0.1784 C   0  0  0  0  0  0  0  0  0  0  0  0
    1.3985   -0.4286   -0.0691 C   0  0  0  0  0  0  0  0  0  0  0  0
    0.2335    0.3099   -0.0579 C   0  0  0  0  0  0  0  0  0  0  0  0
    0.2841    1.6894   -0.1548 C   0  0  0  0  0  0  0  0  0  0  0  0
    1.5017    2.3370   -0.2634 C   0  0  0  0  0  0  0  0  0  0  0  0
    2.6745    1.6102   -0.2757 C   0  0  0  0  0  0  0  0  0  0  0  0
    1.5473    3.8396   -0.3684 C   0  0  0  0  0  0  0  0  0  0  0  0
    1.6387    4.4463    1.0332 C   0  0  0  0  0  0  0  0  0  0  0  0
    0.3575    4.1335    1.8088 C   0  0  0  0  0  0  0  0  0  0  0  0
    0.4489    4.7402    3.2104 C   0  0  0  0  0  0  0  0  0  0  0  0
    0.6206    6.2565    3.0996 C   0  0  0  0  0  0  0  0  0  0  0  0
    1.9017    6.5693    2.3240 C   0  0  0  0  0  0  0  0  0  0  0  0
    1.8104    5.9626    0.9224 C   0  0  0  0  0  0  0  0  0  0  0  0
    5.5353   -7.0020   -3.8588 C   0  0  0  0  0  0  0  0  0  0  0  0
    4.9503   -8.0495   -3.6584 O   0  0  0  0  0  0  0  0  0  0  0  0
    4.3755   -2.2033   -2.6514 H   0  0  0  0  0  0  0  0  0  0  0  0
    3.9509   -3.8735   -3.0967 H   0  0  0  0  0  0  0  0  0  0  0  0
    3.0480   -3.0386   -1.8099 H   0  0  0  0  0  0  0  0  0  0  0  0
    6.7405   -2.8462   -2.2153 H   0  0  0  0  0  0  0  0  0  0  0  0
    7.0762   -4.3315   -1.2888 H   0  0  0  0  0  0  0  0  0  0  0  0
    7.1422   -4.9106   -3.6355 H   0  0  0  0  0  0  0  0  0  0  0  0
    5.6010   -4.0847   -3.9393 H   0  0  0  0  0  0  0  0  0  0  0  0
    4.1471   -7.0668   -1.6869 H   0  0  0  0  0  0  0  0  0  0  0  0
    3.7501   -6.3534    0.5936 H   0  0  0  0  0  0  0  0  0  0  0  0
    3.1362   -3.7571    1.4286 H   0  0  0  0  0  0  0  0  0  0  0  0
    4.1649   -4.7969    2.4490 H   0  0  0  0  0  0  0  0  0  0  0  0
    6.1858   -3.9301    1.2607 H   0  0  0  0  0  0  0  0  0  0  0  0
    5.2722   -2.6107    2.0365 H   0  0  0  0  0  0  0  0  0  0  0  0
    2.9823   -2.3620   -0.0198 H   0  0  0  0  0  0  0  0  0  0  0  0
    1.3576   -1.5052    0.0063 H   0  0  0  0  0  0  0  0  0  0  0  0
   -0.7203   -0.1897    0.0262 H   0  0  0  0  0  0  0  0  0  0  0  0
   -0.6312    2.2626   -0.1501 H   0  0  0  0  0  0  0  0  0  0  0  0
    3.6244    2.1170   -0.3601 H   0  0  0  0  0  0  0  0  0  0  0  0
    2.4196    4.1369   -0.9506 H   0  0  0  0  0  0  0  0  0  0  0  0
    0.6429    4.1970   -0.8608 H   0  0  0  0  0  0  0  0  0  0  0  0
    2.4942    4.0212    1.5580 H   0  0  0  0  0  0  0  0  0  0  0  0
   -0.4980    4.5586    1.2839 H   0  0  0  0  0  0  0  0  0  0  0  0
    0.2352    3.0533    1.8878 H   0  0  0  0  0  0  0  0  0  0  0  0
    1.3044    4.3150    3.7353 H   0  0  0  0  0  0  0  0  0  0  0  0
   -0.4639    4.5173    3.7630 H   0  0  0  0  0  0  0  0  0  0  0  0
    0.6857    6.6887    4.0981 H   0  0  0  0  0  0  0  0  0  0  0  0
   -0.2349    6.6816    2.5747 H   0  0  0  0  0  0  0  0  0  0  0  0
    2.7572    6.1442    2.8488 H   0  0  0  0  0  0  0  0  0  0  0  0
    2.0241    7.6495    2.2450 H   0  0  0  0  0  0  0  0  0  0  0  0
    2.7231    6.1855    0.3698 H   0  0  0  0  0  0  0  0  0  0  0  0
    0.9549    6.3878    0.3975 H   0  0  0  0  0  0  0  0  0  0  0  0
    6.2859   -6.8502   -4.9698 O   0  5  0  0  0  0  0  0  0  0  0  0
  1  2  1  0  0  0  0
  1 31  1  0  0  0  0
  1 32  1  0  0  0  0
  1 33  1  0  0  0  0
  2  7  1  0  0  0  0
  2 11  1  0  0  0  0
  2  3  1  0  0  0  0
  3  4  1  0  0  0  0
  3 34  1  0  0  0  0
  3 35  1  0  0  0  0
  4  5  1  0  0  0  0
  4 36  1  0  0  0  0
  4 37  1  0  0  0  0
  5  6  2  0  0  0  0
  5 29  1  0  0  0  0
  6  7  1  0  0  0  0
  6 38  1  0  0  0  0
  7  8  2  0  0  0  0
  8  9  1  0  0  0  0
  8 39  1  0  0  0  0
  9 10  1  0  0  0  0
  9 40  1  0  0  0  0
  9 41  1  0  0  0  0
 10 11  1  0  0  0  0
 10 42  1  0  0  0  0
 10 43  1  0  0  0  0
 11 12  1  0  0  0  0
 11 13  1  0  0  0  0
 13 14  1  0  0  0  0
 13 44  1  0  0  0  0
 14 15  2  0  0  0  0
 14 16  1  0  0  0  0
 16 21  2  0  0  0  0
 16 17  1  0  0  0  0
 17 18  2  0  0  0  0
 17 45  1  0  0  0  0
 18 19  1  0  0  0  0
 18 46  1  0  0  0  0
 19 20  2  0  0  0  0
 19 47  1  0  0  0  0
 20 21  1  0  0  0  0
 20 22  1  0  0  0  0
 21 48  1  0  0  0  0
 22 23  1  0  0  0  0
 22 49  1  0  0  0  0
 22 50  1  0  0  0  0
 23 28  1  0  0  0  0
 23 24  1  0  0  0  0
 23 51  1  0  0  0  0
 24 25  1  0  0  0  0
 24 52  1  0  0  0  0
 24 53  1  0  0  0  0
 25 26  1  0  0  0  0
 25 54  1  0  0  0  0
 25 55  1  0  0  0  0
 26 27  1  0  0  0  0
 26 56  1  0  0  0  0
 26 57  1  0  0  0  0
 27 28  1  0  0  0  0
 27 58  1  0  0  0  0
 27 59  1  0  0  0  0
 28 60  1  0  0  0  0
 28 61  1  0  0  0  0
 29 30  2  0  0  0  0
 29 62  1  0  0  0  0
M  CHG  1  62  -1
M  END
$$$$
ZINC00834458
  -OEChem-08230709463D

 61 65  0     1  0  0  0  0  0999 V2000
    0.7859    0.0042   -4.3308 C   0  0  0  0  0  0  0  0  0  0  0  0
    1.7500   -0.1776   -3.1568 C   0  0  1  0  0  0  0  0  0  0  0  0
    2.7069   -1.3147   -3.5211 C   0  0  0  0  0  0  0  0  0  0  0  0
    3.3025   -1.0270   -4.9049 C   0  0  0  0  0  0  0  0  0  0  0  0
    3.8808    0.3547   -4.9610 C   0  0  0  0  0  0  0  0  0  0  0  0
    3.5391    1.3429   -4.1121 C   0  0  0  0  0  0  0  0  0  0  0  0
    2.5625    1.0777   -3.0415 C   0  0  0  0  0  0  0  0  0  0  0  0
    2.4430    1.9414   -2.0387 C   0  0  0  0  0  0  0  0  0  0  0  0
    1.5369    1.6529   -0.8698 C   0  0  0  0  0  0  0  0  0  0  0  0
    1.4988    0.1315   -0.6709 C   0  0  0  0  0  0  0  0  0  0  0  0
    0.9247   -0.5054   -1.9347 C   0  0  2  0  0  0  0  0  0  0  0  0
   -0.0916   -0.1413   -2.0851 H   0  0  0  0  0  0  0  0  0  0  0  0
    0.8871   -1.9595   -1.7609 N   0  0  0  0  0  0  0  0  0  0  0  0
   -0.2183   -2.6507   -2.1026 C   0  0  0  0  0  0  0  0  0  0  0  0
   -1.1841   -2.0676   -2.5550 O   0  0  0  0  0  0  0  0  0  0  0  0
   -0.2562   -4.1184   -1.9271 C   0  0  0  0  0  0  0  0  0  0  0  0
    0.8537   -4.7913   -1.4131 C   0  0  0  0  0  0  0  0  0  0  0  0
    0.8131   -6.1602   -1.2462 C   0  0  0  0  0  0  0  0  0  0  0  0
   -0.3205   -6.8705   -1.5964 C   0  0  0  0  0  0  0  0  0  0  0  0
   -1.4271   -6.2107   -2.1132 C   0  0  0  0  0  0  0  0  0  0  0  0
   -1.3990   -4.8362   -2.2800 C   0  0  0  0  0  0  0  0  0  0  0  0
   -2.5384   -6.9140   -2.4562 O   0  0  0  0  0  0  0  0  0  0  0  0
   -2.4657   -8.3368   -2.3449 C   0  0  0  0  0  0  0  0  0  0  0  0
   -3.0613   -8.7747   -1.0054 C   0  0  0  0  0  0  0  0  0  0  0  0
   -3.7768   -7.7118   -0.1691 C   0  0  0  0  0  0  0  0  0  0  0  0
   -2.4075   -8.2357    0.2685 C   0  0  0  0  0  0  0  0  0  0  0  0
   -3.2545   -8.9787   -3.4881 C   0  0  0  0  0  0  0  0  0  0  0  0
   -2.5452  -10.0464   -4.3234 C   0  0  0  0  0  0  0  0  0  0  0  0
   -2.8109   -8.6617   -4.9176 C   0  0  0  0  0  0  0  0  0  0  0  0
    4.8423    0.6372   -5.9640 C   0  0  0  0  0  0  0  0  0  0  0  0
    5.3338    1.7473   -6.0400 O   0  0  0  0  0  0  0  0  0  0  0  0
    0.0941    0.8172   -4.1102 H   0  0  0  0  0  0  0  0  0  0  0  0
    1.3513    0.2426   -5.2317 H   0  0  0  0  0  0  0  0  0  0  0  0
    0.2254   -0.9175   -4.4868 H   0  0  0  0  0  0  0  0  0  0  0  0
    3.4967   -1.3815   -2.7728 H   0  0  0  0  0  0  0  0  0  0  0  0
    2.1580   -2.2555   -3.5609 H   0  0  0  0  0  0  0  0  0  0  0  0
    2.5308   -1.1211   -5.6690 H   0  0  0  0  0  0  0  0  0  0  0  0
    4.0915   -1.7515   -5.1066 H   0  0  0  0  0  0  0  0  0  0  0  0
    3.9787    2.3240   -4.2154 H   0  0  0  0  0  0  0  0  0  0  0  0
    3.0188    2.8550   -2.0526 H   0  0  0  0  0  0  0  0  0  0  0  0
    0.5335    2.0230   -1.0803 H   0  0  0  0  0  0  0  0  0  0  0  0
    1.9276    2.1329    0.0275 H   0  0  0  0  0  0  0  0  0  0  0  0
    2.5082   -0.2415   -0.4979 H   0  0  0  0  0  0  0  0  0  0  0  0
    0.8658   -0.1114    0.1826 H   0  0  0  0  0  0  0  0  0  0  0  0
    1.6578   -2.4249   -1.3998 H   0  0  0  0  0  0  0  0  0  0  0  0
    1.7422   -4.2401   -1.1427 H   0  0  0  0  0  0  0  0  0  0  0  0
    1.6710   -6.6793   -0.8450 H   0  0  0  0  0  0  0  0  0  0  0  0
   -0.3449   -7.9426   -1.4678 H   0  0  0  0  0  0  0  0  0  0  0  0
   -2.2592   -4.3216   -2.6823 H   0  0  0  0  0  0  0  0  0  0  0  0
   -1.4240   -8.6528   -2.4000 H   0  0  0  0  0  0  0  0  0  0  0  0
   -3.4584   -9.7895   -0.9767 H   0  0  0  0  0  0  0  0  0  0  0  0
   -3.8231   -6.7006   -0.5733 H   0  0  0  0  0  0  0  0  0  0  0  0
   -4.6448   -8.0272    0.4098 H   0  0  0  0  0  0  0  0  0  0  0  0
   -2.3747   -8.8957    1.1354 H   0  0  0  0  0  0  0  0  0  0  0  0
   -1.5529   -7.5691    0.1523 H   0  0  0  0  0  0  0  0  0  0  0  0
   -4.3220   -9.1063   -3.3090 H   0  0  0  0  0  0  0  0  0  0  0  0
   -1.5167  -10.2915   -4.0587 H   0  0  0  0  0  0  0  0  0  0  0  0
   -3.1462  -10.8768   -4.6940 H   0  0  0  0  0  0  0  0  0  0  0  0
   -3.5866   -8.5812   -5.6791 H   0  0  0  0  0  0  0  0  0  0  0  0
   -1.9571   -7.9959   -5.0438 H   0  0  0  0  0  0  0  0  0  0  0  0
    5.2121   -0.3254   -6.8343 O   0  5  0  0  0  0  0  0  0  0  0  0
  1  2  1  0  0  0  0
  1 32  1  0  0  0  0
  1 33  1  0  0  0  0
  1 34  1  0  0  0  0
  2  7  1  0  0  0  0
  2 11  1  0  0  0  0
  2  3  1  0  0  0  0
  3  4  1  0  0  0  0
  3 35  1  0  0  0  0
  3 36  1  0  0  0  0
  4  5  1  0  0  0  0
  4 37  1  0  0  0  0
  4 38  1  0  0  0  0
  5  6  2  0  0  0  0
  5 30  1  0  0  0  0
  6  7  1  0  0  0  0
  6 39  1  0  0  0  0
  7  8  2  0  0  0  0
  8  9  1  0  0  0  0
  8 40  1  0  0  0  0
  9 10  1  0  0  0  0
  9 41  1  0  0  0  0
  9 42  1  0  0  0  0
 10 11  1  0  0  0  0
 10 43  1  0  0  0  0
 10 44  1  0  0  0  0
 11 12  1  0  0  0  0
 11 13  1  0  0  0  0
 13 14  1  0  0  0  0
 13 45  1  0  0  0  0
 14 15  2  0  0  0  0
 14 16  1  0  0  0  0
 16 21  2  0  0  0  0
 16 17  1  0  0  0  0
 17 18  2  0  0  0  0
 17 46  1  0  0  0  0
 18 19  1  0  0  0  0
 18 47  1  0  0  0  0
 19 20  2  0  0  0  0
 19 48  1  0  0  0  0
 20 21  1  0  0  0  0
 20 22  1  0  0  0  0
 21 49  1  0  0  0  0
 22 23  1  0  0  0  0
 23 24  1  0  0  0  0
 23 27  1  0  0  0  0
 23 50  1  0  0  0  0
 24 26  1  0  0  0  0
 24 25  1  0  0  0  0
 24 51  1  0  0  0  0
 25 26  1  0  0  0  0
 25 52  1  0  0  0  0
 25 53  1  0  0  0  0
 26 54  1  0  0  0  0
 26 55  1  0  0  0  0
 27 29  1  0  0  0  0
 27 28  1  0  0  0  0
 27 56  1  0  0  0  0
 28 29  1  0  0  0  0
 28 57  1  0  0  0  0
 28 58  1  0  0  0  0
 29 59  1  0  0  0  0
 29 60  1  0  0  0  0
 30 31  2  0  0  0  0
 30 61  1  0  0  0  0
M  CHG  1  61  -1
M  END
$$$$
ZINC00834460
  -OEChem-08230709463D

 58 62  0     1  0  0  0  0  0999 V2000
    1.4340   -0.9022    2.4080 C   0  0  0  0  0  0  0  0  0  0  0  0
    1.7384   -0.9627    0.9098 C   0  0  1  0  0  0  0  0  0  0  0  0
    0.5348   -0.5010    0.1067 C   0  0  0  0  0  0  0  0  0  0  0  0
    0.2951    0.9892    0.2223 C   0  0  0  0  0  0  0  0  0  0  0  0
    1.5195    1.8380    0.1962 C   0  0  0  0  0  0  0  0  0  0  0  0
    2.7746    1.3647    0.3666 C   0  0  0  0  0  0  0  0  0  0  0  0
    2.9222   -0.0851    0.5579 C   0  0  0  0  0  0  0  0  0  0  0  0
    4.0176   -0.8148    0.4048 C   0  0  0  0  0  0  0  0  0  0  0  0
    3.7120   -2.2818    0.6160 C   0  0  0  0  0  0  0  0  0  0  0  0
    2.1714   -2.3846    0.5069 C   0  0  2  0  0  0  0  0  0  0  0  0
    1.7788   -3.1250    1.2039 H   0  0  0  0  0  0  0  0  0  0  0  0
    1.7612   -2.6894   -0.8660 N   0  0  0  0  0  0  0  0  0  0  0  0
    1.2467   -3.8993   -1.1628 C   0  0  0  0  0  0  0  0  0  0  0  0
    1.1231   -4.7375   -0.2913 O   0  0  0  0  0  0  0  0  0  0  0  0
    0.8327   -4.2069   -2.5485 C   0  0  0  0  0  0  0  0  0  0  0  0
    0.9736   -3.2460   -3.5514 C   0  0  0  0  0  0  0  0  0  0  0  0
    0.5862   -3.5364   -4.8433 C   0  0  0  0  0  0  0  0  0  0  0  0
    0.0581   -4.7773   -5.1491 C   0  0  0  0  0  0  0  0  0  0  0  0
   -0.0858   -5.7391   -4.1586 C   0  0  0  0  0  0  0  0  0  0  0  0
    0.3052   -5.4602   -2.8596 C   0  0  0  0  0  0  0  0  0  0  0  0
   -0.6050   -6.9572   -4.4649 O   0  0  0  0  0  0  0  0  0  0  0  0
   -0.8669   -7.2225   -5.8444 C   0  0  0  0  0  0  0  0  0  0  0  0
   -0.5250   -8.6806   -6.1572 C   0  0  0  0  0  0  0  0  0  0  0  0
   -0.1906   -9.5965   -4.9781 C   0  0  0  0  0  0  0  0  0  0  0  0
    0.9180   -9.1333   -5.9253 C   0  0  0  0  0  0  0  0  0  0  0  0
   -2.3468   -6.9710   -6.1401 C   0  0  0  0  0  0  0  0  0  0  0  0
   -2.6862   -6.0605   -7.3220 C   0  0  0  0  0  0  0  0  0  0  0  0
   -2.8877   -5.5618   -5.8896 C   0  0  0  0  0  0  0  0  0  0  0  0
    1.3583    3.2298   -0.0213 C   0  0  0  0  0  0  0  0  0  0  0  0
    2.3324    3.9577   -0.0498 O   0  0  0  0  0  0  0  0  0  0  0  0
    0.5949   -1.5598    2.6352 H   0  0  0  0  0  0  0  0  0  0  0  0
    2.3106   -1.2243    2.9702 H   0  0  0  0  0  0  0  0  0  0  0  0
    1.1797    0.1206    2.6861 H   0  0  0  0  0  0  0  0  0  0  0  0
   -0.3499   -1.0288    0.4629 H   0  0  0  0  0  0  0  0  0  0  0  0
    0.6956   -0.7517   -0.9418 H   0  0  0  0  0  0  0  0  0  0  0  0
   -0.3517    1.2964   -0.5996 H   0  0  0  0  0  0  0  0  0  0  0  0
   -0.2332    1.1793    1.1566 H   0  0  0  0  0  0  0  0  0  0  0  0
    3.6307    2.0230    0.3626 H   0  0  0  0  0  0  0  0  0  0  0  0
    4.9924   -0.4180    0.1626 H   0  0  0  0  0  0  0  0  0  0  0  0
    4.0446   -2.6003    1.6040 H   0  0  0  0  0  0  0  0  0  0  0  0
    4.1883   -2.8838   -0.1579 H   0  0  0  0  0  0  0  0  0  0  0  0
    1.8598   -2.0205   -1.5615 H   0  0  0  0  0  0  0  0  0  0  0  0
    1.3859   -2.2760   -3.3161 H   0  0  0  0  0  0  0  0  0  0  0  0
    0.6954   -2.7920   -5.6182 H   0  0  0  0  0  0  0  0  0  0  0  0
   -0.2437   -4.9989   -6.1621 H   0  0  0  0  0  0  0  0  0  0  0  0
    0.1983   -6.2093   -2.0890 H   0  0  0  0  0  0  0  0  0  0  0  0
   -0.2559   -6.5653   -6.4632 H   0  0  0  0  0  0  0  0  0  0  0  0
   -1.0608   -9.1190   -6.9992 H   0  0  0  0  0  0  0  0  0  0  0  0
   -0.2142   -9.1602   -3.9795 H   0  0  0  0  0  0  0  0  0  0  0  0
   -0.5066  -10.6376   -5.0440 H   0  0  0  0  0  0  0  0  0  0  0  0
    1.3314   -9.8697   -6.6145 H   0  0  0  0  0  0  0  0  0  0  0  0
    1.6239   -8.3922   -5.5503 H   0  0  0  0  0  0  0  0  0  0  0  0
   -3.0149   -7.8091   -5.9419 H   0  0  0  0  0  0  0  0  0  0  0  0
   -1.8552   -5.6408   -7.8889 H   0  0  0  0  0  0  0  0  0  0  0  0
   -3.5778   -6.2997   -7.9017 H   0  0  0  0  0  0  0  0  0  0  0  0
   -3.9117   -5.4729   -5.5270 H   0  0  0  0  0  0  0  0  0  0  0  0
   -2.1893   -4.8141   -5.5138 H   0  0  0  0  0  0  0  0  0  0  0  0
    0.1243    3.7467   -0.1968 O   0  5  0  0  0  0  0  0  0  0  0  0
  1  2  1  0  0  0  0
  1 31  1  0  0  0  0
  1 32  1  0  0  0  0
  1 33  1  0  0  0  0
  2  7  1  0  0  0  0
  2 10  1  0  0  0  0
  2  3  1  0  0  0  0
  3  4  1  0  0  0  0
  3 34  1  0  0  0  0
  3 35  1  0  0  0  0
  4  5  1  0  0  0  0
  4 36  1  0  0  0  0
  4 37  1  0  0  0  0
  5  6  2  0  0  0  0
  5 29  1  0  0  0  0
  6  7  1  0  0  0  0
  6 38  1  0  0  0  0
  7  8  2  0  0  0  0
  8  9  1  0  0  0  0
  8 39  1  0  0  0  0
  9 10  1  0  0  0  0
  9 40  1  0  0  0  0
  9 41  1  0  0  0  0
 10 11  1  0  0  0  0
 10 12  1  0  0  0  0
 12 13  1  0  0  0  0
 12 42  1  0  0  0  0
 13 14  2  0  0  0  0
 13 15  1  0  0  0  0
 15 20  2  0  0  0  0
 15 16  1  0  0  0  0
 16 17  2  0  0  0  0
 16 43  1  0  0  0  0
 17 18  1  0  0  0  0
 17 44  1  0  0  0  0
 18 19  2  0  0  0  0
 18 45  1  0  0  0  0
 19 20  1  0  0  0  0
 19 21  1  0  0  0  0
 20 46  1  0  0  0  0
 21 22  1  0  0  0  0
 22 23  1  0  0  0  0
 22 26  1  0  0  0  0
 22 47  1  0  0  0  0
 23 25  1  0  0  0  0
 23 24  1  0  0  0  0
 23 48  1  0  0  0  0
 24 25  1  0  0  0  0
 24 49  1  0  0  0  0
 24 50  1  0  0  0  0
 25 51  1  0  0  0  0
 25 52  1  0  0  0  0
 26 28  1  0  0  0  0
 26 27  1  0  0  0  0
 26 53  1  0  0  0  0
 27 28  1  0  0  0  0
 27 54  1  0  0  0  0
 27 55  1  0  0  0  0
 28 56  1  0  0  0  0
 28 57  1  0  0  0  0
 29 30  2  0  0  0  0
 29 58  1  0  0  0  0
M  CHG  1  58  -1
M  END
$$$$
ZINC00834842
  -OEChem-08230709463D

 61 64  0     1  0  0  0  0  0999 V2000
    3.4306    2.0979   -1.2609 C   0  0  0  0  0  0  0  0  0  0  0  0
    2.3779    1.1572   -0.6712 C   0  0  1  0  0  0  0  0  0  0  0  0
    1.9669    0.1798   -1.7461 C   0  0  0  0  0  0  0  0  0  0  0  0
    3.2257   -0.5504   -2.2517 C   0  0  0  0  0  0  0  0  0  0  0  0
    3.9502   -1.2327   -1.1002 C   0  0  1  0  0  0  0  0  0  0  0  0
    3.2687   -1.9733   -0.6818 H   0  0  0  0  0  0  0  0  0  0  0  0
    5.1839   -1.9699   -1.5428 C   0  0  0  0  0  0  0  0  0  0  0  0
    5.1575   -2.5902   -2.7864 C   0  0  0  0  0  0  0  0  0  0  0  0
    6.2523   -3.2822   -3.2525 C   0  0  0  0  0  0  0  0  0  0  0  0
    7.4038   -3.3610   -2.4659 C   0  0  0  0  0  0  0  0  0  0  0  0
    7.4281   -2.7339   -1.2226 C   0  0  0  0  0  0  0  0  0  0  0  0
    6.3214   -2.0364   -0.7630 C   0  0  0  0  0  0  0  0  0  0  0  0
    6.4257   -1.3750    0.5862 C   0  0  0  0  0  0  0  0  0  0  0  0
    5.0492   -0.9786    1.1181 C   0  0  0  0  0  0  0  0  0  0  0  0
    4.3029   -0.2350    0.0107 C   0  0  2  0  0  0  0  0  0  0  0  0
    4.9349    0.5565   -0.3919 H   0  0  0  0  0  0  0  0  0  0  0  0
    2.9980    0.3541    0.5063 C   0  0  1  0  0  0  0  0  0  0  0  0
    2.3213   -0.4371    0.8290 H   0  0  0  0  0  0  0  0  0  0  0  0
    3.1134    1.4347    1.5866 C   0  0  0  0  0  0  0  0  0  0  0  0
    1.7744    2.2099    1.4499 C   0  0  0  0  0  0  0  0  0  0  0  0
    1.2804    1.9746    0.0004 C   0  0  2  0  0  0  0  0  0  0  0  0
    1.1538    2.8337   -0.4955 H   0  0  0  0  0  0  0  0  0  0  0  0
   -0.0143    1.2034    0.0087 C   0  0  0  0  0  0  0  0  0  0  0  0
    0.0021   -0.0041    0.0020 O   0  0  0  0  0  0  0  0  0  0  0  0
   -1.3295    1.9391    0.0189 C   0  0  0  0  0  0  0  0  0  0  0  0
   -2.4788    0.9291    0.0189 C   0  0  0  0  0  0  0  0  0  0  0  0
   -2.3799    0.0439    1.2628 C   0  0  0  0  0  0  0  0  0  0  0  0
   -3.8141    1.6761    0.0292 C   0  0  0  0  0  0  0  0  0  0  0  0
   -2.3918    0.0575   -1.2356 C   0  0  0  0  0  0  0  0  0  0  0  0
    8.5863   -4.1030   -2.9490 C   0  0  0  0  0  0  0  0  0  0  0  0
    9.5853   -4.1680   -2.2610 O   0  0  0  0  0  0  0  0  0  0  0  0
    3.8466    2.7201   -0.4685 H   0  0  0  0  0  0  0  0  0  0  0  0
    4.2273    1.5108   -1.7179 H   0  0  0  0  0  0  0  0  0  0  0  0
    2.9680    2.7329   -2.0164 H   0  0  0  0  0  0  0  0  0  0  0  0
    1.4938    0.7140   -2.5700 H   0  0  0  0  0  0  0  0  0  0  0  0
    1.2670   -0.5406   -1.3227 H   0  0  0  0  0  0  0  0  0  0  0  0
    3.8953    0.1708   -2.7203 H   0  0  0  0  0  0  0  0  0  0  0  0
    2.9341   -1.3002   -2.9872 H   0  0  0  0  0  0  0  0  0  0  0  0
    4.2668   -2.5291   -3.3941 H   0  0  0  0  0  0  0  0  0  0  0  0
    6.2210   -3.7614   -4.2199 H   0  0  0  0  0  0  0  0  0  0  0  0
    8.3164   -2.7916   -0.6111 H   0  0  0  0  0  0  0  0  0  0  0  0
    7.0453   -0.4825    0.4992 H   0  0  0  0  0  0  0  0  0  0  0  0
    6.8933   -2.0670    1.2867 H   0  0  0  0  0  0  0  0  0  0  0  0
    5.1638   -0.3278    1.9850 H   0  0  0  0  0  0  0  0  0  0  0  0
    4.4928   -1.8725    1.4000 H   0  0  0  0  0  0  0  0  0  0  0  0
    3.9607    2.0907    1.3867 H   0  0  0  0  0  0  0  0  0  0  0  0
    3.1985    0.9838    2.5753 H   0  0  0  0  0  0  0  0  0  0  0  0
    1.9387    3.2737    1.6212 H   0  0  0  0  0  0  0  0  0  0  0  0
    1.0443    1.8241    2.1614 H   0  0  0  0  0  0  0  0  0  0  0  0
   -1.3864    2.5088    0.8388 H   0  0  0  0  0  0  0  0  0  0  0  0
   -1.3999    2.5697   -0.8673 H   0  0  0  0  0  0  0  0  0  0  0  0
   -2.4419    0.6649    2.1565 H   0  0  0  0  0  0  0  0  0  0  0  0
   -3.1987   -0.6756    1.2628 H   0  0  0  0  0  0  0  0  0  0  0  0
   -1.4286   -0.4882    1.2554 H   0  0  0  0  0  0  0  0  0  0  0  0
   -3.8845    2.3067   -0.8570 H   0  0  0  0  0  0  0  0  0  0  0  0
   -4.6329    0.9566    0.0292 H   0  0  0  0  0  0  0  0  0  0  0  0
   -3.8761    2.2970    0.9229 H   0  0  0  0  0  0  0  0  0  0  0  0
   -1.4405   -0.4746   -1.2430 H   0  0  0  0  0  0  0  0  0  0  0  0
   -3.2105   -0.6620   -1.2356 H   0  0  0  0  0  0  0  0  0  0  0  0
   -2.4622    0.6882   -2.1218 H   0  0  0  0  0  0  0  0  0  0  0  0
    8.5568   -4.7075   -4.1525 O   0  5  0  0  0  0  0  0  0  0  0  0
  1  2  1  0  0  0  0
  1 32  1  0  0  0  0
  1 33  1  0  0  0  0
  1 34  1  0  0  0  0
  2 17  1  0  0  0  0
  2 21  1  0  0  0  0
  2  3  1  0  0  0  0
  3  4  1  0  0  0  0
  3 35  1  0  0  0  0
  3 36  1  0  0  0  0
  4  5  1  0  0  0  0
  4 37  1  0  0  0  0
  4 38  1  0  0  0  0
  5  6  1  0  0  0  0
  5 15  1  0  0  0  0
  5  7  1  0  0  0  0
  7 12  2  0  0  0  0
  7  8  1  0  0  0  0
  8  9  2  0  0  0  0
  8 39  1  0  0  0  0
  9 10  1  0  0  0  0
  9 40  1  0  0  0  0
 10 11  2  0  0  0  0
 10 30  1  0  0  0  0
 11 12  1  0  0  0  0
 11 41  1  0  0  0  0
 12 13  1  0  0  0  0
 13 14  1  0  0  0  0
 13 42  1  0  0  0  0
 13 43  1  0  0  0  0
 14 15  1  0  0  0  0
 14 44  1  0  0  0  0
 14 45  1  0  0  0  0
 15 16  1  0  0  0  0
 15 17  1  0  0  0  0
 17 18  1  0  0  0  0
 17 19  1  0  0  0  0
 19 20  1  0  0  0  0
 19 46  1  0  0  0  0
 19 47  1  0  0  0  0
 20 21  1  0  0  0  0
 20 48  1  0  0  0  0
 20 49  1  0  0  0  0
 21 22  1  0  0  0  0
 21 23  1  0  0  0  0
 23 24  2  0  0  0  0
 23 25  1  0  0  0  0
 25 26  1  0  0  0  0
 25 50  1  0  0  0  0
 25 51  1  0  0  0  0
 26 27  1  0  0  0  0
 26 28  1  0  0  0  0
 26 29  1  0  0  0  0
 27 52  1  0  0  0  0
 27 53  1  0  0  0  0
 27 54  1  0  0  0  0
 28 55  1  0  0  0  0
 28 56  1  0  0  0  0
 28 57  1  0  0  0  0
 29 58  1  0  0  0  0
 29 59  1  0  0  0  0
 29 60  1  0  0  0  0
 30 31  2  0  0  0  0
 30 61  1  0  0  0  0
M  CHG  1  61  -1
M  END
$$$$
ZINC00838625
  -OEChem-08230709463D

 52 54  0     1  0  0  0  0  0999 V2000
   -2.4003   11.6753    0.0827 C   0  0  0  0  0  0  0  0  0  0  0  0
   -1.2336   12.6651    0.0761 C   0  0  0  0  0  0  0  0  0  0  0  0
   -1.2993   13.5392    1.3301 C   0  0  0  0  0  0  0  0  0  0  0  0
   -1.3232   13.5508   -1.1682 C   0  0  0  0  0  0  0  0  0  0  0  0
    0.0685   11.9067    0.0601 C   0  0  0  0  0  0  0  0  0  0  0  0
    0.0619   10.5291    0.0538 C   0  0  0  0  0  0  0  0  0  0  0  0
    1.2710    9.8265    0.0390 C   0  0  0  0  0  0  0  0  0  0  0  0
    2.4818   10.5270    0.0365 C   0  0  0  0  0  0  0  0  0  0  0  0
    2.4778   11.9042    0.0375 C   0  0  0  0  0  0  0  0  0  0  0  0
    1.2737   12.5979    0.0523 C   0  0  0  0  0  0  0  0  0  0  0  0
    1.2750   13.9559    0.0586 O   0  0  0  0  0  0  0  0  0  0  0  0
    2.5488   14.6035    0.0499 C   0  0  2  0  0  0  0  0  0  0  0  0
    3.1792   14.1760    0.8296 H   0  0  0  0  0  0  0  0  0  0  0  0
    2.3621   16.1009    0.3078 C   0  0  0  0  0  0  0  0  0  0  0  0
    3.7247   16.7971    0.2372 C   0  0  0  0  0  0  0  0  0  0  0  0
    4.3587   16.5171   -1.1288 C   0  0  0  0  0  0  0  0  0  0  0  0
    4.4683   15.0035   -1.3312 C   0  0  0  0  0  0  0  0  0  0  0  0
    3.1708   14.4146   -1.2227 O   0  0  0  0  0  0  0  0  0  0  0  0
    1.2696    8.3945    0.0323 C   0  0  0  0  0  0  0  0  0  0  0  0
    1.2684    7.2205    0.0268 C   0  0  0  0  0  0  0  0  0  0  0  0
    1.2670    5.7885    0.0201 C   0  0  0  0  0  0  0  0  0  0  0  0
    2.4836    5.0960    0.0052 C   0  0  0  0  0  0  0  0  0  0  0  0
    2.4756    3.7277   -0.0016 C   0  0  0  0  0  0  0  0  0  0  0  0
    1.2384    3.0642    0.0067 C   0  0  0  0  0  0  0  0  0  0  0  0
    0.0614    3.8182    0.0161 C   0  0  0  0  0  0  0  0  0  0  0  0
    0.1085    5.1319    0.0276 N   0  0  0  0  0  0  0  0  0  0  0  0
    1.1812    1.5909   -0.0007 C   0  0  0  0  0  0  0  0  0  0  0  0
    2.2091    0.9431   -0.0140 O   0  0  0  0  0  0  0  0  0  0  0  0
   -2.3365   11.0443    0.9692 H   0  0  0  0  0  0  0  0  0  0  0  0
   -3.3421   12.2239    0.0943 H   0  0  0  0  0  0  0  0  0  0  0  0
   -2.3535   11.0526   -0.8107 H   0  0  0  0  0  0  0  0  0  0  0  0
   -0.4682   14.2444    1.3255 H   0  0  0  0  0  0  0  0  0  0  0  0
   -2.2411   14.0878    1.3417 H   0  0  0  0  0  0  0  0  0  0  0  0
   -1.2355   12.9082    2.2166 H   0  0  0  0  0  0  0  0  0  0  0  0
   -1.2764   12.9281   -2.0616 H   0  0  0  0  0  0  0  0  0  0  0  0
   -2.2651   14.0994   -1.1566 H   0  0  0  0  0  0  0  0  0  0  0  0
   -0.4921   14.2560   -1.1729 H   0  0  0  0  0  0  0  0  0  0  0  0
   -0.8754    9.9927    0.0606 H   0  0  0  0  0  0  0  0  0  0  0  0
    3.4181    9.9888    0.0299 H   0  0  0  0  0  0  0  0  0  0  0  0
    3.4121   12.4460    0.0318 H   0  0  0  0  0  0  0  0  0  0  0  0
    1.6989   16.5209   -0.4485 H   0  0  0  0  0  0  0  0  0  0  0  0
    1.9282   16.2489    1.2967 H   0  0  0  0  0  0  0  0  0  0  0  0
    4.3720   16.4123    1.0253 H   0  0  0  0  0  0  0  0  0  0  0  0
    3.5938   17.8716    0.3651 H   0  0  0  0  0  0  0  0  0  0  0  0
    5.3527   16.9626   -1.1673 H   0  0  0  0  0  0  0  0  0  0  0  0
    3.7358   16.9454   -1.9141 H   0  0  0  0  0  0  0  0  0  0  0  0
    5.1239   14.5815   -0.5695 H   0  0  0  0  0  0  0  0  0  0  0  0
    4.8795   14.7976   -2.3195 H   0  0  0  0  0  0  0  0  0  0  0  0
    3.4188    5.6361   -0.0005 H   0  0  0  0  0  0  0  0  0  0  0  0
    3.4007    3.1704   -0.0127 H   0  0  0  0  0  0  0  0  0  0  0  0
   -0.8952    3.3169    0.0184 H   0  0  0  0  0  0  0  0  0  0  0  0
   -0.0110    0.9628    0.0073 O   0  5  0  0  0  0  0  0  0  0  0  0
  1  2  1  0  0  0  0
  1 29  1  0  0  0  0
  1 30  1  0  0  0  0
  1 31  1  0  0  0  0
  2  3  1  0  0  0  0
  2  4  1  0  0  0  0
  2  5  1  0  0  0  0
  3 32  1  0  0  0  0
  3 33  1  0  0  0  0
  3 34  1  0  0  0  0
  4 35  1  0  0  0  0
  4 36  1  0  0  0  0
  4 37  1  0  0  0  0
  5 10  2  0  0  0  0
  5  6  1  0  0  0  0
  6  7  2  0  0  0  0
  6 38  1  0  0  0  0
  7  8  1  0  0  0  0
  7 19  1  0  0  0  0
  8  9  2  0  0  0  0
  8 39  1  0  0  0  0
  9 10  1  0  0  0  0
  9 40  1  0  0  0  0
 10 11  1  0  0  0  0
 11 12  1  0  0  0  0
 12 13  1  0  0  0  0
 12 18  1  0  0  0  0
 12 14  1  0  0  0  0
 14 15  1  0  0  0  0
 14 41  1  0  0  0  0
 14 42  1  0  0  0  0
 15 16  1  0  0  0  0
 15 43  1  0  0  0  0
 15 44  1  0  0  0  0
 16 17  1  0  0  0  0
 16 45  1  0  0  0  0
 16 46  1  0  0  0  0
 17 18  1  0  0  0  0
 17 47  1  0  0  0  0
 17 48  1  0  0  0  0
 19 20  3  0  0  0  0
 20 21  1  0  0  0  0
 21 26  2  0  0  0  0
 21 22  1  0  0  0  0
 22 23  2  0  0  0  0
 22 49  1  0  0  0  0
 23 24  1  0  0  0  0
 23 50  1  0  0  0  0
 24 25  2  0  0  0  0
 24 27  1  0  0  0  0
 25 26  1  0  0  0  0
 25 51  1  0  0  0  0
 27 28  2  0  0  0  0
 27 52  1  0  0  0  0
M  CHG  1  52  -1
M  END
$$$$
ZINC00902940
  -OEChem-08230709463D

 54 56  0     0  0  0  0  0  0999 V2000
   -3.7101   -0.7717   -0.0942 C   0  0  0  0  0  0  0  0  0  0  0  0
   -2.4091   -0.0112   -0.0838 C   0  0  0  0  0  0  0  0  0  0  0  0
   -2.4269    1.3815   -0.0721 C   0  0  0  0  0  0  0  0  0  0  0  0
   -1.2695    2.0981   -0.0575 C   0  0  0  0  0  0  0  0  0  0  0  0
   -0.0340    1.4281   -0.0653 C   0  0  0  0  0  0  0  0  0  0  0  0
   -0.0184    0.0119   -0.0772 C   0  0  0  0  0  0  0  0  0  0  0  0
   -1.2308   -0.6947   -0.0864 C   0  0  0  0  0  0  0  0  0  0  0  0
    1.2206   -0.6612   -0.0790 C   0  0  0  0  0  0  0  0  0  0  0  0
    2.3605    0.0844   -0.0693 C   0  0  0  0  0  0  0  0  0  0  0  0
    2.2795    1.4847   -0.0577 C   0  0  0  0  0  0  0  0  0  0  0  0
    1.1180    2.1079   -0.0561 N   0  0  0  0  0  0  0  0  0  0  0  0
    3.7648    2.4325   -0.0446 S   0  0  0  0  0  0  0  0  0  0  0  0
    3.0707    4.1042   -0.0329 C   0  0  0  0  0  0  0  0  0  0  0  0
    4.1903    5.1128   -0.0205 C   0  0  0  0  0  0  0  0  0  0  0  0
    5.3439    4.7384   -0.0197 O   0  0  0  0  0  0  0  0  0  0  0  0
    3.9097    6.4310   -0.0103 N   0  0  0  0  0  0  0  0  0  0  0  0
    4.9415    7.3626    0.0958 C   0  0  0  0  0  0  0  0  0  0  0  0
    6.1654    7.1159   -0.5068 C   0  0  0  0  0  0  0  0  0  0  0  0
    7.1905    8.0417   -0.4012 C   0  0  0  0  0  0  0  0  0  0  0  0
    6.9980    9.2266    0.3114 C   0  0  0  0  0  0  0  0  0  0  0  0
    5.7852    9.4831    0.9154 C   0  0  0  0  0  0  0  0  0  0  0  0
    4.7421    8.5557    0.8083 C   0  0  0  0  0  0  0  0  0  0  0  0
    3.4440    8.8274    1.4454 C   0  0  0  0  0  0  0  0  0  0  0  0
    2.5740    7.9786    1.4382 O   0  0  0  0  0  0  0  0  0  0  0  0
    8.0098   10.1308    0.4104 O   0  0  0  0  0  0  0  0  0  0  0  0
    7.7450   11.3220    1.1540 C   0  0  0  0  0  0  0  0  0  0  0  0
    8.3877    7.7953   -0.9927 O   0  0  0  0  0  0  0  0  0  0  0  0
    8.5177    6.5638   -1.7058 C   0  0  0  0  0  0  0  0  0  0  0  0
    1.2822   -2.1668   -0.0920 C   0  0  0  0  0  0  0  0  0  0  0  0
   -1.3128    3.6044   -0.0444 C   0  0  0  0  0  0  0  0  0  0  0  0
   -4.0267   -0.9641    0.9309 H   0  0  0  0  0  0  0  0  0  0  0  0
   -4.4714   -0.1823   -0.6051 H   0  0  0  0  0  0  0  0  0  0  0  0
   -3.5731   -1.7189   -0.6160 H   0  0  0  0  0  0  0  0  0  0  0  0
   -3.3738    1.9009   -0.0699 H   0  0  0  0  0  0  0  0  0  0  0  0
   -1.2296   -1.7747   -0.0951 H   0  0  0  0  0  0  0  0  0  0  0  0
    3.3249   -0.4017   -0.0707 H   0  0  0  0  0  0  0  0  0  0  0  0
    2.4599    4.2502   -0.9238 H   0  0  0  0  0  0  0  0  0  0  0  0
    2.4538    4.2352    0.8561 H   0  0  0  0  0  0  0  0  0  0  0  0
    2.9898    6.7316   -0.0769 H   0  0  0  0  0  0  0  0  0  0  0  0
    6.3199    6.2006   -1.0589 H   0  0  0  0  0  0  0  0  0  0  0  0
    5.6388   10.4003    1.4664 H   0  0  0  0  0  0  0  0  0  0  0  0
    8.6325   11.9548    1.1546 H   0  0  0  0  0  0  0  0  0  0  0  0
    6.9155   11.8599    0.6951 H   0  0  0  0  0  0  0  0  0  0  0  0
    7.4850   11.0598    2.1796 H   0  0  0  0  0  0  0  0  0  0  0  0
    9.5200    6.4927   -2.1283 H   0  0  0  0  0  0  0  0  0  0  0  0
    8.3508    5.7298   -1.0241 H   0  0  0  0  0  0  0  0  0  0  0  0
    7.7816    6.5295   -2.5089 H   0  0  0  0  0  0  0  0  0  0  0  0
    1.3003   -2.5209   -1.1228 H   0  0  0  0  0  0  0  0  0  0  0  0
    2.1845   -2.4981    0.4219 H   0  0  0  0  0  0  0  0  0  0  0  0
    0.4061   -2.5707    0.4154 H   0  0  0  0  0  0  0  0  0  0  0  0
   -1.3249    3.9765   -1.0688 H   0  0  0  0  0  0  0  0  0  0  0  0
   -2.2121    3.9375    0.4738 H   0  0  0  0  0  0  0  0  0  0  0  0
   -0.4328    3.9887    0.4714 H   0  0  0  0  0  0  0  0  0  0  0  0
    3.2196   10.0176    2.0370 O   0  5  0  0  0  0  0  0  0  0  0  0
  1  2  1  0  0  0  0
  1 31  1  0  0  0  0
  1 32  1  0  0  0  0
  1 33  1  0  0  0  0
  2  7  2  0  0  0  0
  2  3  1  0  0  0  0
  3  4  2  0  0  0  0
  3 34  1  0  0  0  0
  4  5  1  0  0  0  0
  4 30  1  0  0  0  0
  5 11  2  0  0  0  0
  5  6  1  0  0  0  0
  6  7  1  0  0  0  0
  6  8  2  0  0  0  0
  7 35  1  0  0  0  0
  8  9  1  0  0  0  0
  8 29  1  0  0  0  0
  9 10  2  0  0  0  0
  9 36  1  0  0  0  0
 10 11  1  0  0  0  0
 10 12  1  0  0  0  0
 12 13  1  0  0  0  0
 13 14  1  0  0  0  0
 13 37  1  0  0  0  0
 13 38  1  0  0  0  0
 14 15  2  0  0  0  0
 14 16  1  0  0  0  0
 16 17  1  0  0  0  0
 16 39  1  0  0  0  0
 17 22  2  0  0  0  0
 17 18  1  0  0  0  0
 18 19  2  0  0  0  0
 18 40  1  0  0  0  0
 19 20  1  0  0  0  0
 19 27  1  0  0  0  0
 20 21  2  0  0  0  0
 20 25  1  0  0  0  0
 21 22  1  0  0  0  0
 21 41  1  0  0  0  0
 22 23  1  0  0  0  0
 23 24  2  0  0  0  0
 23 54  1  0  0  0  0
 25 26  1  0  0  0  0
 26 42  1  0  0  0  0
 26 43  1  0  0  0  0
 26 44  1  0  0  0  0
 27 28  1  0  0  0  0
 28 45  1  0  0  0  0
 28 46  1  0  0  0  0
 28 47  1  0  0  0  0
 29 48  1  0  0  0  0
 29 49  1  0  0  0  0
 29 50  1  0  0  0  0
 30 51  1  0  0  0  0
 30 52  1  0  0  0  0
 30 53  1  0  0  0  0
M  CHG  1  54  -1
M  END
$$$$
ZINC00932906
  -OEChem-08230709463D

 51 53  0     0  0  0  0  0  0999 V2000
   -0.0061    0.9645    0.0296 C   0  0  0  0  0  0  0  0  0  0  0  0
   -0.7127    1.4641    1.2634 C   0  0  0  0  0  0  0  0  0  0  0  0
   -2.0890    1.6748    1.2273 C   0  0  0  0  0  0  0  0  0  0  0  0
   -2.7563    2.1215    2.3276 C   0  0  0  0  0  0  0  0  0  0  0  0
   -2.0479    2.3826    3.5105 C   0  0  0  0  0  0  0  0  0  0  0  0
   -2.7040    2.8507    4.6680 C   0  0  0  0  0  0  0  0  0  0  0  0
   -1.9579    3.0849    5.7828 C   0  0  0  0  0  0  0  0  0  0  0  0
   -0.5734    2.8592    5.7574 C   0  0  0  0  0  0  0  0  0  0  0  0
    0.0338    2.4220    4.6724 N   0  0  0  0  0  0  0  0  0  0  0  0
   -0.6478    2.1742    3.5480 C   0  0  0  0  0  0  0  0  0  0  0  0
    0.0051    1.7078    2.3943 C   0  0  0  0  0  0  0  0  0  0  0  0
    0.3757    3.1678    7.2095 S   0  0  0  0  0  0  0  0  0  0  0  0
    2.0234    2.7194    6.6093 C   0  0  0  0  0  0  0  0  0  0  0  0
    3.0297    2.9097    7.7148 C   0  0  0  0  0  0  0  0  0  0  0  0
    2.6685    3.3092    8.8014 O   0  0  0  0  0  0  0  0  0  0  0  0
    4.3311    2.6360    7.4958 N   0  0  0  0  0  0  0  0  0  0  0  0
    5.2753    2.9004    8.4869 C   0  0  0  0  0  0  0  0  0  0  0  0
    4.9463    2.7324    9.8230 C   0  0  0  0  0  0  0  0  0  0  0  0
    5.8847    2.9952   10.8077 C   0  0  0  0  0  0  0  0  0  0  0  0
    7.1652    3.4301   10.4613 C   0  0  0  0  0  0  0  0  0  0  0  0
    7.5042    3.6014    9.1357 C   0  0  0  0  0  0  0  0  0  0  0  0
    6.5639    3.3321    8.1342 C   0  0  0  0  0  0  0  0  0  0  0  0
    6.9225    3.5069    6.7181 C   0  0  0  0  0  0  0  0  0  0  0  0
    6.0767    3.3711    5.8558 O   0  0  0  0  0  0  0  0  0  0  0  0
    8.0811    3.6861   11.4343 O   0  0  0  0  0  0  0  0  0  0  0  0
    9.3721    4.1279   11.0100 C   0  0  0  0  0  0  0  0  0  0  0  0
    5.5575    2.8295   12.1151 O   0  0  0  0  0  0  0  0  0  0  0  0
    4.2304    2.3826   12.4001 C   0  0  0  0  0  0  0  0  0  0  0  0
   -2.6182    3.5852    7.0417 C   0  0  0  0  0  0  0  0  0  0  0  0
    0.0121   -0.1253    0.0375 H   0  0  0  0  0  0  0  0  0  0  0  0
    1.0152    1.3449    0.0167 H   0  0  0  0  0  0  0  0  0  0  0  0
   -0.5347    1.3126   -0.8579 H   0  0  0  0  0  0  0  0  0  0  0  0
   -2.6347    1.4777    0.3164 H   0  0  0  0  0  0  0  0  0  0  0  0
   -3.8242    2.2775    2.2887 H   0  0  0  0  0  0  0  0  0  0  0  0
   -3.7708    3.0188    4.6701 H   0  0  0  0  0  0  0  0  0  0  0  0
    1.0724    1.5428    2.4048 H   0  0  0  0  0  0  0  0  0  0  0  0
    2.0235    1.6761    6.2934 H   0  0  0  0  0  0  0  0  0  0  0  0
    2.2876    3.3549    5.7641 H   0  0  0  0  0  0  0  0  0  0  0  0
    4.6108    2.2551    6.6487 H   0  0  0  0  0  0  0  0  0  0  0  0
    3.9570    2.3965   10.0967 H   0  0  0  0  0  0  0  0  0  0  0  0
    8.4954    3.9383    8.8703 H   0  0  0  0  0  0  0  0  0  0  0  0
    9.8254    3.3677   10.3738 H   0  0  0  0  0  0  0  0  0  0  0  0
    9.2720    5.0578   10.4500 H   0  0  0  0  0  0  0  0  0  0  0  0
   10.0037    4.2954   11.8824 H   0  0  0  0  0  0  0  0  0  0  0  0
    4.0653    1.4124   11.9317 H   0  0  0  0  0  0  0  0  0  0  0  0
    4.1013    2.2921   13.4787 H   0  0  0  0  0  0  0  0  0  0  0  0
    3.5124    3.1026   12.0075 H   0  0  0  0  0  0  0  0  0  0  0  0
   -2.9296    2.7364    7.6506 H   0  0  0  0  0  0  0  0  0  0  0  0
   -1.9123    4.1963    7.6041 H   0  0  0  0  0  0  0  0  0  0  0  0
   -3.4905    4.1846    6.7809 H   0  0  0  0  0  0  0  0  0  0  0  0
    8.1890    3.8176    6.3770 O   0  5  0  0  0  0  0  0  0  0  0  0
  1  2  1  0  0  0  0
  1 30  1  0  0  0  0
  1 31  1  0  0  0  0
  1 32  1  0  0  0  0
  2 11  2  0  0  0  0
  2  3  1  0  0  0  0
  3  4  2  0  0  0  0
  3 33  1  0  0  0  0
  4  5  1  0  0  0  0
  4 34  1  0  0  0  0
  5 10  2  0  0  0  0
  5  6  1  0  0  0  0
  6  7  2  0  0  0  0
  6 35  1  0  0  0  0
  7  8  1  0  0  0  0
  7 29  1  0  0  0  0
  8  9  2  0  0  0  0
  8 12  1  0  0  0  0
  9 10  1  0  0  0  0
 10 11  1  0  0  0  0
 11 36  1  0  0  0  0
 12 13  1  0  0  0  0
 13 14  1  0  0  0  0
 13 37  1  0  0  0  0
 13 38  1  0  0  0  0
 14 15  2  0  0  0  0
 14 16  1  0  0  0  0
 16 17  1  0  0  0  0
 16 39  1  0  0  0  0
 17 22  2  0  0  0  0
 17 18  1  0  0  0  0
 18 19  2  0  0  0  0
 18 40  1  0  0  0  0
 19 20  1  0  0  0  0
 19 27  1  0  0  0  0
 20 21  2  0  0  0  0
 20 25  1  0  0  0  0
 21 22  1  0  0  0  0
 21 41  1  0  0  0  0
 22 23  1  0  0  0  0
 23 24  2  0  0  0  0
 23 51  1  0  0  0  0
 25 26  1  0  0  0  0
 26 42  1  0  0  0  0
 26 43  1  0  0  0  0
 26 44  1  0  0  0  0
 27 28  1  0  0  0  0
 28 45  1  0  0  0  0
 28 46  1  0  0  0  0
 28 47  1  0  0  0  0
 29 48  1  0  0  0  0
 29 49  1  0  0  0  0
 29 50  1  0  0  0  0
M  CHG  1  51  -1
M  END
$$$$
ZINC00962448
  -OEChem-08230709463D

 52 54  0     0  0  0  0  0  0999 V2000
   -4.4626    0.2473   -1.3748 C   0  0  0  0  0  0  0  0  0  0  0  0
   -3.0029   -0.2104   -1.3983 C   0  0  0  0  0  0  0  0  0  0  0  0
   -2.4953   -0.3700    0.0362 C   0  0  0  0  0  0  0  0  0  0  0  0
   -1.0975   -0.8082    0.0136 N   0  0  0  0  0  0  0  0  0  0  0  0
   -0.6470   -2.1159   -0.0034 C   0  0  0  0  0  0  0  0  0  0  0  0
    0.7322   -2.0513   -0.0157 C   0  0  0  0  0  0  0  0  0  0  0  0
    1.0816   -0.7492   -0.0118 N   0  0  0  0  0  0  0  0  0  0  0  0
    0.0021   -0.0041    0.0020 C   0  0  0  0  0  0  0  0  0  0  0  0
   -0.0218    1.7577    0.0117 S   0  0  0  0  0  0  0  0  0  0  0  0
    1.7562    2.0963   -0.0035 C   0  0  0  0  0  0  0  0  0  0  0  0
    1.9840    3.5860    0.0024 C   0  0  0  0  0  0  0  0  0  0  0  0
    1.0410    4.3412    0.0154 O   0  0  0  0  0  0  0  0  0  0  0  0
    1.6608   -3.2050   -0.0308 C   0  0  0  0  0  0  0  0  0  0  0  0
    1.3379   -4.3716    0.6627 C   0  0  0  0  0  0  0  0  0  0  0  0
    2.2027   -5.4455    0.6424 C   0  0  0  0  0  0  0  0  0  0  0  0
    3.3984   -5.3629   -0.0583 C   0  0  0  0  0  0  0  0  0  0  0  0
    3.7255   -4.2016   -0.7452 C   0  0  0  0  0  0  0  0  0  0  0  0
    2.8632   -3.1257   -0.7338 C   0  0  0  0  0  0  0  0  0  0  0  0
    4.2509   -6.4212   -0.0714 O   0  0  0  0  0  0  0  0  0  0  0  0
    3.8520   -7.5846    0.6563 C   0  0  0  0  0  0  0  0  0  0  0  0
   -1.4755   -3.3370   -0.0020 C   0  0  0  0  0  0  0  0  0  0  0  0
   -2.5647   -3.4439    0.8666 C   0  0  0  0  0  0  0  0  0  0  0  0
   -3.3391   -4.5843    0.8602 C   0  0  0  0  0  0  0  0  0  0  0  0
   -3.0314   -5.6304    0.0005 C   0  0  0  0  0  0  0  0  0  0  0  0
   -1.9465   -5.5311   -0.8604 C   0  0  0  0  0  0  0  0  0  0  0  0
   -1.1697   -4.3923   -0.8653 C   0  0  0  0  0  0  0  0  0  0  0  0
   -3.7942   -6.7553    0.0021 O   0  0  0  0  0  0  0  0  0  0  0  0
   -4.8949   -6.7915    0.9126 C   0  0  0  0  0  0  0  0  0  0  0  0
   -5.0680   -0.4958   -0.8557 H   0  0  0  0  0  0  0  0  0  0  0  0
   -4.5356    1.2027   -0.8551 H   0  0  0  0  0  0  0  0  0  0  0  0
   -4.8243    0.3610   -2.3967 H   0  0  0  0  0  0  0  0  0  0  0  0
   -2.3975    0.5327   -1.9174 H   0  0  0  0  0  0  0  0  0  0  0  0
   -2.9299   -1.1657   -1.9180 H   0  0  0  0  0  0  0  0  0  0  0  0
   -3.1006   -1.1131    0.5552 H   0  0  0  0  0  0  0  0  0  0  0  0
   -2.5682    0.5854    0.5558 H   0  0  0  0  0  0  0  0  0  0  0  0
    2.2177    1.6547    0.8798 H   0  0  0  0  0  0  0  0  0  0  0  0
    2.2007    1.6643   -0.9001 H   0  0  0  0  0  0  0  0  0  0  0  0
    0.4099   -4.4350    1.2116 H   0  0  0  0  0  0  0  0  0  0  0  0
    1.9516   -6.3503    1.1760 H   0  0  0  0  0  0  0  0  0  0  0  0
    4.6564   -4.1411   -1.2895 H   0  0  0  0  0  0  0  0  0  0  0  0
    3.1185   -2.2225   -1.2681 H   0  0  0  0  0  0  0  0  0  0  0  0
    4.6202   -8.3523    0.5636 H   0  0  0  0  0  0  0  0  0  0  0  0
    3.7197   -7.3281    1.7074 H   0  0  0  0  0  0  0  0  0  0  0  0
    2.9118   -7.9608    0.2530 H   0  0  0  0  0  0  0  0  0  0  0  0
   -2.8019   -2.6328    1.5390 H   0  0  0  0  0  0  0  0  0  0  0  0
   -4.1839   -4.6660    1.5281 H   0  0  0  0  0  0  0  0  0  0  0  0
   -1.7107   -6.3474   -1.5271 H   0  0  0  0  0  0  0  0  0  0  0  0
   -0.3258   -4.3161   -1.5350 H   0  0  0  0  0  0  0  0  0  0  0  0
   -5.5796   -5.9737    0.6877 H   0  0  0  0  0  0  0  0  0  0  0  0
   -5.4188   -7.7420    0.8118 H   0  0  0  0  0  0  0  0  0  0  0  0
   -4.5261   -6.6863    1.9329 H   0  0  0  0  0  0  0  0  0  0  0  0
    3.2345    4.0737   -0.0069 O   0  5  0  0  0  0  0  0  0  0  0  0
  1  2  1  0  0  0  0
  1 29  1  0  0  0  0
  1 30  1  0  0  0  0
  1 31  1  0  0  0  0
  2  3  1  0  0  0  0
  2 32  1  0  0  0  0
  2 33  1  0  0  0  0
  3  4  1  0  0  0  0
  3 34  1  0  0  0  0
  3 35  1  0  0  0  0
  4  8  1  0  0  0  0
  4  5  1  0  0  0  0
  5  6  2  0  0  0  0
  5 21  1  0  0  0  0
  6  7  1  0  0  0  0
  6 13  1  0  0  0  0
  7  8  2  0  0  0  0
  8  9  1  0  0  0  0
  9 10  1  0  0  0  0
 10 11  1  0  0  0  0
 10 36  1  0  0  0  0
 10 37  1  0  0  0  0
 11 12  2  0  0  0  0
 11 52  1  0  0  0  0
 13 18  2  0  0  0  0
 13 14  1  0  0  0  0
 14 15  2  0  0  0  0
 14 38  1  0  0  0  0
 15 16  1  0  0  0  0
 15 39  1  0  0  0  0
 16 17  2  0  0  0  0
 16 19  1  0  0  0  0
 17 18  1  0  0  0  0
 17 40  1  0  0  0  0
 18 41  1  0  0  0  0
 19 20  1  0  0  0  0
 20 42  1  0  0  0  0
 20 43  1  0  0  0  0
 20 44  1  0  0  0  0
 21 26  2  0  0  0  0
 21 22  1  0  0  0  0
 22 23  2  0  0  0  0
 22 45  1  0  0  0  0
 23 24  1  0  0  0  0
 23 46  1  0  0  0  0
 24 25  2  0  0  0  0
 24 27  1  0  0  0  0
 25 26  1  0  0  0  0
 25 47  1  0  0  0  0
 26 48  1  0  0  0  0
 27 28  1  0  0  0  0
 28 49  1  0  0  0  0
 28 50  1  0  0  0  0
 28 51  1  0  0  0  0
M  CHG  1  52  -1
M  END
$$$$
ZINC00979483
  -OEChem-08230709463D

 48 50  0     0  0  0  0  0  0999 V2000
   -6.5592   -1.9856   -8.3670 C   0  0  0  0  0  0  0  0  0  0  0  0
   -6.1724   -1.5726   -6.9455 C   0  0  0  0  0  0  0  0  0  0  0  0
   -6.3092   -2.6937   -6.0700 O   0  0  0  0  0  0  0  0  0  0  0  0
   -6.0023   -2.4951   -4.7601 C   0  0  0  0  0  0  0  0  0  0  0  0
   -6.1131   -3.5412   -3.8559 C   0  0  0  0  0  0  0  0  0  0  0  0
   -5.8022   -3.3403   -2.5255 C   0  0  0  0  0  0  0  0  0  0  0  0
   -5.3783   -2.0905   -2.0930 C   0  0  0  0  0  0  0  0  0  0  0  0
   -5.2727   -1.0424   -2.9980 C   0  0  0  0  0  0  0  0  0  0  0  0
   -5.5790   -1.2464   -4.3289 C   0  0  0  0  0  0  0  0  0  0  0  0
   -5.0633   -1.8858   -0.7444 N   0  0  0  0  0  0  0  0  0  0  0  0
   -4.0588   -0.9973   -0.3945 C   0  0  0  0  0  0  0  0  0  0  0  0
   -3.6918   -0.5817    0.8039 N   0  0  0  0  0  0  0  0  0  0  0  0
   -2.6896    0.2807    0.9560 C   0  0  0  0  0  0  0  0  0  0  0  0
   -2.0387    0.7509   -0.1492 C   0  0  0  0  0  0  0  0  0  0  0  0
   -2.9176   -0.1106   -1.4460 S   0  0  0  0  0  0  0  0  0  0  0  0
   -0.8913    1.7230   -0.2477 C   0  0  0  0  0  0  0  0  0  0  0  0
    0.4071    0.9617   -0.3220 C   0  0  0  0  0  0  0  0  0  0  0  0
    0.4014   -0.2463   -0.2975 O   0  0  0  0  0  0  0  0  0  0  0  0
   -2.2869    0.7302    2.3107 C   0  0  0  0  0  0  0  0  0  0  0  0
   -0.9508    0.6607    2.7026 C   0  0  0  0  0  0  0  0  0  0  0  0
   -0.5812    1.0849    3.9625 C   0  0  0  0  0  0  0  0  0  0  0  0
   -1.5354    1.5681    4.8402 C   0  0  0  0  0  0  0  0  0  0  0  0
   -2.8631    1.6348    4.4586 C   0  0  0  0  0  0  0  0  0  0  0  0
   -3.2436    1.2183    3.1989 C   0  0  0  0  0  0  0  0  0  0  0  0
   -4.6907    1.2916    2.7846 C   0  0  0  0  0  0  0  0  0  0  0  0
    0.8634    1.0153    4.3858 C   0  0  0  0  0  0  0  0  0  0  0  0
   -5.9051   -2.7904   -8.7023 H   0  0  0  0  0  0  0  0  0  0  0  0
   -7.5933   -2.3300   -8.3766 H   0  0  0  0  0  0  0  0  0  0  0  0
   -6.4549   -1.1305   -9.0349 H   0  0  0  0  0  0  0  0  0  0  0  0
   -6.8265   -0.7678   -6.6102 H   0  0  0  0  0  0  0  0  0  0  0  0
   -5.1382   -1.2282   -6.9360 H   0  0  0  0  0  0  0  0  0  0  0  0
   -6.4424   -4.5131   -4.1925 H   0  0  0  0  0  0  0  0  0  0  0  0
   -5.8882   -4.1549   -1.8217 H   0  0  0  0  0  0  0  0  0  0  0  0
   -4.9471   -0.0691   -2.6617 H   0  0  0  0  0  0  0  0  0  0  0  0
   -5.4927   -0.4326   -5.0337 H   0  0  0  0  0  0  0  0  0  0  0  0
   -5.5481   -2.3659   -0.0549 H   0  0  0  0  0  0  0  0  0  0  0  0
   -0.8848    2.3676    0.6312 H   0  0  0  0  0  0  0  0  0  0  0  0
   -1.0072    2.3321   -1.1442 H   0  0  0  0  0  0  0  0  0  0  0  0
   -0.2059    0.2792    2.0200 H   0  0  0  0  0  0  0  0  0  0  0  0
   -1.2422    1.8948    5.8270 H   0  0  0  0  0  0  0  0  0  0  0  0
   -3.6036    2.0132    5.1477 H   0  0  0  0  0  0  0  0  0  0  0  0
   -5.1673    0.3266    2.9566 H   0  0  0  0  0  0  0  0  0  0  0  0
   -5.1983    2.0573    3.3714 H   0  0  0  0  0  0  0  0  0  0  0  0
   -4.7532    1.5442    1.7261 H   0  0  0  0  0  0  0  0  0  0  0  0
    1.0607    0.0476    4.8472 H   0  0  0  0  0  0  0  0  0  0  0  0
    1.5042    1.1389    3.5127 H   0  0  0  0  0  0  0  0  0  0  0  0
    1.0703    1.8090    5.1037 H   0  0  0  0  0  0  0  0  0  0  0  0
    1.5696    1.6254   -0.4210 O   0  5  0  0  0  0  0  0  0  0  0  0
  1  2  1  0  0  0  0
  1 27  1  0  0  0  0
  1 28  1  0  0  0  0
  1 29  1  0  0  0  0
  2  3  1  0  0  0  0
  2 30  1  0  0  0  0
  2 31  1  0  0  0  0
  3  4  1  0  0  0  0
  4  9  2  0  0  0  0
  4  5  1  0  0  0  0
  5  6  2  0  0  0  0
  5 32  1  0  0  0  0
  6  7  1  0  0  0  0
  6 33  1  0  0  0  0
  7  8  2  0  0  0  0
  7 10  1  0  0  0  0
  8  9  1  0  0  0  0
  8 34  1  0  0  0  0
  9 35  1  0  0  0  0
 10 11  1  0  0  0  0
 10 36  1  0  0  0  0
 11 15  1  0  0  0  0
 11 12  2  0  0  0  0
 12 13  1  0  0  0  0
 13 14  2  0  0  0  0
 13 19  1  0  0  0  0
 14 15  1  0  0  0  0
 14 16  1  0  0  0  0
 16 17  1  0  0  0  0
 16 37  1  0  0  0  0
 16 38  1  0  0  0  0
 17 18  2  0  0  0  0
 17 48  1  0  0  0  0
 19 24  2  0  0  0  0
 19 20  1  0  0  0  0
 20 21  2  0  0  0  0
 20 39  1  0  0  0  0
 21 22  1  0  0  0  0
 21 26  1  0  0  0  0
 22 23  2  0  0  0  0
 22 40  1  0  0  0  0
 23 24  1  0  0  0  0
 23 41  1  0  0  0  0
 24 25  1  0  0  0  0
 25 42  1  0  0  0  0
 25 43  1  0  0  0  0
 25 44  1  0  0  0  0
 26 45  1  0  0  0  0
 26 46  1  0  0  0  0
 26 47  1  0  0  0  0
M  CHG  1  48  -1
M  END
$$$$
ZINC01034347
  -OEChem-08230709463D

 57 60  0     0  0  0  0  0  0999 V2000
   -6.1702    4.4110   -0.1182 C   0  0  0  0  0  0  0  0  0  0  0  0
   -4.6757    4.2312   -0.1903 C   0  0  0  0  0  0  0  0  0  0  0  0
   -4.0438    4.2150   -1.4191 C   0  0  0  0  0  0  0  0  0  0  0  0
   -2.6735    4.0574   -1.4889 C   0  0  0  0  0  0  0  0  0  0  0  0
   -1.9360    3.9023   -0.3248 C   0  0  0  0  0  0  0  0  0  0  0  0
   -2.5723    3.9180    0.9105 C   0  0  0  0  0  0  0  0  0  0  0  0
   -3.9425    4.0827    0.9753 C   0  0  0  0  0  0  0  0  0  0  0  0
   -4.3921    4.0651    2.4207 C   0  0  0  0  0  0  0  0  0  0  0  0
   -3.1108    4.3107    3.2453 C   0  0  0  0  0  0  0  0  0  0  0  0
   -2.0065    3.7786    2.3074 C   0  0  0  0  0  0  0  0  0  0  0  0
   -0.5884    3.7404   -0.3919 O   0  0  0  0  0  0  0  0  0  0  0  0
   -0.0989    2.4747   -0.4119 C   0  0  0  0  0  0  0  0  0  0  0  0
    1.2802    2.2653   -0.3728 C   0  0  0  0  0  0  0  0  0  0  0  0
    1.7644    0.9634   -0.3945 C   0  0  0  0  0  0  0  0  0  0  0  0
    0.8514   -0.0800   -0.4546 C   0  0  0  0  0  0  0  0  0  0  0  0
   -0.4990    0.2039   -0.4960 C   0  0  0  0  0  0  0  0  0  0  0  0
   -0.9323    1.4506   -0.4688 N   0  0  0  0  0  0  0  0  0  0  0  0
    2.1630    3.3516   -0.3129 N   0  0  0  0  0  0  0  0  0  0  0  0
    3.4763    3.1414   -0.0946 C   0  0  0  0  0  0  0  0  0  0  0  0
    3.9051    2.0092   -0.0203 O   0  0  0  0  0  0  0  0  0  0  0  0
    4.4119    4.3130    0.0571 C   0  0  0  0  0  0  0  0  0  0  0  0
    5.8492    3.8046    0.1852 C   0  0  0  0  0  0  0  0  0  0  0  0
    6.8336    4.9923    0.1657 C   0  0  0  0  0  0  0  0  0  0  0  0
    8.0527    4.4611   -0.6299 C   0  0  0  0  0  0  0  0  0  0  0  0
    7.3921    3.5980   -1.7333 C   0  0  0  0  0  0  0  0  0  0  0  0
    6.2043    2.9181   -1.0214 C   0  0  0  0  0  0  0  0  0  0  0  0
    6.0104    3.0116    1.4837 C   0  0  0  0  0  0  0  0  0  0  0  0
    5.7912    3.9260    2.6613 C   0  0  0  0  0  0  0  0  0  0  0  0
    5.5071    5.0864    2.4805 O   0  0  0  0  0  0  0  0  0  0  0  0
   -6.4055    5.4730   -0.0496 H   0  0  0  0  0  0  0  0  0  0  0  0
   -6.6299    3.9941   -1.0143 H   0  0  0  0  0  0  0  0  0  0  0  0
   -6.5560    3.8957    0.7614 H   0  0  0  0  0  0  0  0  0  0  0  0
   -4.6208    4.3310   -2.3246 H   0  0  0  0  0  0  0  0  0  0  0  0
   -2.1779    4.0495   -2.4484 H   0  0  0  0  0  0  0  0  0  0  0  0
   -5.1162    4.8595    2.6013 H   0  0  0  0  0  0  0  0  0  0  0  0
   -4.8245    3.0962    2.6705 H   0  0  0  0  0  0  0  0  0  0  0  0
   -2.9738    5.3743    3.4409 H   0  0  0  0  0  0  0  0  0  0  0  0
   -3.1346    3.7444    4.1763 H   0  0  0  0  0  0  0  0  0  0  0  0
   -1.7954    2.7321    2.5273 H   0  0  0  0  0  0  0  0  0  0  0  0
   -1.1016    4.3776    2.4105 H   0  0  0  0  0  0  0  0  0  0  0  0
    2.8261    0.7679   -0.3650 H   0  0  0  0  0  0  0  0  0  0  0  0
    1.1940   -1.1040   -0.4733 H   0  0  0  0  0  0  0  0  0  0  0  0
   -1.2116   -0.6060   -0.5472 H   0  0  0  0  0  0  0  0  0  0  0  0
    1.8291    4.2549   -0.4285 H   0  0  0  0  0  0  0  0  0  0  0  0
    4.3313    4.9580   -0.8179 H   0  0  0  0  0  0  0  0  0  0  0  0
    4.1452    4.8776    0.9505 H   0  0  0  0  0  0  0  0  0  0  0  0
    6.3893    5.8476   -0.3434 H   0  0  0  0  0  0  0  0  0  0  0  0
    7.1270    5.2612    1.1804 H   0  0  0  0  0  0  0  0  0  0  0  0
    8.6925    3.8504    0.0071 H   0  0  0  0  0  0  0  0  0  0  0  0
    8.6161    5.2845   -1.0690 H   0  0  0  0  0  0  0  0  0  0  0  0
    8.0934    2.8503   -2.1038 H   0  0  0  0  0  0  0  0  0  0  0  0
    7.0380    4.2277   -2.5494 H   0  0  0  0  0  0  0  0  0  0  0  0
    6.4923    1.9232   -0.6818 H   0  0  0  0  0  0  0  0  0  0  0  0
    5.3526    2.8501   -1.6982 H   0  0  0  0  0  0  0  0  0  0  0  0
    5.2787    2.2041    1.5095 H   0  0  0  0  0  0  0  0  0  0  0  0
    7.0156    2.5926    1.5311 H   0  0  0  0  0  0  0  0  0  0  0  0
    5.9116    3.4514    3.9111 O   0  5  0  0  0  0  0  0  0  0  0  0
  1  2  1  0  0  0  0
  1 30  1  0  0  0  0
  1 31  1  0  0  0  0
  1 32  1  0  0  0  0
  2  7  2  0  0  0  0
  2  3  1  0  0  0  0
  3  4  2  0  0  0  0
  3 33  1  0  0  0  0
  4  5  1  0  0  0  0
  4 34  1  0  0  0  0
  5  6  2  0  0  0  0
  5 11  1  0  0  0  0
  6 10  1  0  0  0  0
  6  7  1  0  0  0  0
  7  8  1  0  0  0  0
  8  9  1  0  0  0  0
  8 35  1  0  0  0  0
  8 36  1  0  0  0  0
  9 10  1  0  0  0  0
  9 37  1  0  0  0  0
  9 38  1  0  0  0  0
 10 39  1  0  0  0  0
 10 40  1  0  0  0  0
 11 12  1  0  0  0  0
 12 17  2  0  0  0  0
 12 13  1  0  0  0  0
 13 14  2  0  0  0  0
 13 18  1  0  0  0  0
 14 15  1  0  0  0  0
 14 41  1  0  0  0  0
 15 16  2  0  0  0  0
 15 42  1  0  0  0  0
 16 17  1  0  0  0  0
 16 43  1  0  0  0  0
 18 19  1  0  0  0  0
 18 44  1  0  0  0  0
 19 20  2  0  0  0  0
 19 21  1  0  0  0  0
 21 22  1  0  0  0  0
 21 45  1  0  0  0  0
 21 46  1  0  0  0  0
 22 26  1  0  0  0  0
 22 23  1  0  0  0  0
 22 27  1  0  0  0  0
 23 24  1  0  0  0  0
 23 47  1  0  0  0  0
 23 48  1  0  0  0  0
 24 25  1  0  0  0  0
 24 49  1  0  0  0  0
 24 50  1  0  0  0  0
 25 26  1  0  0  0  0
 25 51  1  0  0  0  0
 25 52  1  0  0  0  0
 26 53  1  0  0  0  0
 26 54  1  0  0  0  0
 27 28  1  0  0  0  0
 27 55  1  0  0  0  0
 27 56  1  0  0  0  0
 28 29  2  0  0  0  0
 28 57  1  0  0  0  0
M  CHG  1  57  -1
M  END
$$$$
ZINC01271489
  -OEChem-08230709463D

 51 53  0     1  0  0  0  0  0999 V2000
   -4.0785    2.6157   -2.5261 C   0  0  0  0  0  0  0  0  0  0  0  0
   -3.2401    2.9065   -1.2797 C   0  0  0  0  0  0  0  0  0  0  0  0
   -2.0540    1.9415   -1.2263 C   0  0  0  0  0  0  0  0  0  0  0  0
   -1.2157    2.2324    0.0202 C   0  0  1  0  0  0  0  0  0  0  0  0
   -0.9225    3.2822    0.0240 H   0  0  0  0  0  0  0  0  0  0  0  0
   -2.0411    1.9289    1.2721 C   0  0  0  0  0  0  0  0  0  0  0  0
   -0.0168    1.3905    0.0097 N   0  0  0  0  0  0  0  0  0  0  0  0
    1.2871    1.8411   -0.0003 C   0  0  0  0  0  0  0  0  0  0  0  0
    2.0860    0.7304   -0.0232 C   0  0  0  0  0  0  0  0  0  0  0  0
    1.2454   -0.4025   -0.0186 C   0  0  0  0  0  0  0  0  0  0  0  0
    0.0021   -0.0041    0.0020 N   0  0  0  0  0  0  0  0  0  0  0  0
    1.6616   -1.6970   -0.0329 O   0  0  0  0  0  0  0  0  0  0  0  0
    3.5808    0.6236   -0.0539 C   0  0  1  0  0  0  0  0  0  0  0  0
    3.9141    0.6508   -1.0913 H   0  0  0  0  0  0  0  0  0  0  0  0
    4.3913    1.9475    0.8500 S   0  0  0  0  0  0  0  0  0  0  0  0
    4.0299    3.4556   -0.0598 C   0  0  0  0  0  0  0  0  0  0  0  0
    2.6103    3.8578    0.0227 C   0  0  0  0  0  0  0  0  0  0  0  0
    1.5746    3.1536    0.0214 N   0  0  0  0  0  0  0  0  0  0  0  0
    2.3974    5.1867    0.1127 O   0  0  0  0  0  0  0  0  0  0  0  0
    3.9865   -0.6964    0.5495 C   0  0  0  0  0  0  0  0  0  0  0  0
    4.2088   -1.7899   -0.2652 C   0  0  0  0  0  0  0  0  0  0  0  0
    4.5851   -2.9999    0.2873 C   0  0  0  0  0  0  0  0  0  0  0  0
    4.7307   -3.1218    1.6571 C   0  0  0  0  0  0  0  0  0  0  0  0
    4.5045   -2.0330    2.4764 C   0  0  0  0  0  0  0  0  0  0  0  0
    4.1313   -0.8161    1.9238 C   0  0  0  0  0  0  0  0  0  0  0  0
    3.9086    0.2567    2.7278 O   0  0  0  0  0  0  0  0  0  0  0  0
    4.0767    0.0603    4.1332 C   0  0  0  0  0  0  0  0  0  0  0  0
    3.7849    1.3693    4.8696 C   0  0  0  0  0  0  0  0  0  0  0  0
   -3.4633    2.7465   -3.4164 H   0  0  0  0  0  0  0  0  0  0  0  0
   -4.4458    1.5903   -2.4858 H   0  0  0  0  0  0  0  0  0  0  0  0
   -4.9235    3.3032   -2.5642 H   0  0  0  0  0  0  0  0  0  0  0  0
   -3.8553    2.7757   -0.3894 H   0  0  0  0  0  0  0  0  0  0  0  0
   -2.8728    3.9319   -1.3200 H   0  0  0  0  0  0  0  0  0  0  0  0
   -1.4389    2.0723   -2.1165 H   0  0  0  0  0  0  0  0  0  0  0  0
   -2.4214    0.9161   -1.1859 H   0  0  0  0  0  0  0  0  0  0  0  0
   -1.4439    2.1360    2.1601 H   0  0  0  0  0  0  0  0  0  0  0  0
   -2.9331    2.5553    1.2799 H   0  0  0  0  0  0  0  0  0  0  0  0
   -2.3344    0.8791    1.2683 H   0  0  0  0  0  0  0  0  0  0  0  0
    1.7695   -2.0657   -0.9204 H   0  0  0  0  0  0  0  0  0  0  0  0
    4.6461    4.2615    0.3389 H   0  0  0  0  0  0  0  0  0  0  0  0
    4.2908    3.3039   -1.1072 H   0  0  0  0  0  0  0  0  0  0  0  0
    1.4780    5.4812    0.1682 H   0  0  0  0  0  0  0  0  0  0  0  0
    4.0922   -1.6982   -1.3350 H   0  0  0  0  0  0  0  0  0  0  0  0
    4.7625   -3.8524   -0.3516 H   0  0  0  0  0  0  0  0  0  0  0  0
    5.0211   -4.0691    2.0867 H   0  0  0  0  0  0  0  0  0  0  0  0
    4.6176   -2.1288    3.5461 H   0  0  0  0  0  0  0  0  0  0  0  0
    3.3880   -0.7114    4.4771 H   0  0  0  0  0  0  0  0  0  0  0  0
    5.1015   -0.2505    4.3366 H   0  0  0  0  0  0  0  0  0  0  0  0
    2.7601    1.6800    4.6662 H   0  0  0  0  0  0  0  0  0  0  0  0
    3.9131    1.2194    5.9416 H   0  0  0  0  0  0  0  0  0  0  0  0
    4.4736    2.1409    4.5257 H   0  0  0  0  0  0  0  0  0  0  0  0
  1  2  1  0  0  0  0
  1 29  1  0  0  0  0
  1 30  1  0  0  0  0
  1 31  1  0  0  0  0
  2  3  1  0  0  0  0
  2 32  1  0  0  0  0
  2 33  1  0  0  0  0
  3  4  1  0  0  0  0
  3 34  1  0  0  0  0
  3 35  1  0  0  0  0
  4  5  1  0  0  0  0
  4  6  1  0  0  0  0
  4  7  1  0  0  0  0
  6 36  1  0  0  0  0
  6 37  1  0  0  0  0
  6 38  1  0  0  0  0
  7 11  1  0  0  0  0
  7  8  1  0  0  0  0
  8 18  1  0  0  0  0
  8  9  2  0  0  0  0
  9 10  1  0  0  0  0
  9 13  1  0  0  0  0
 10 11  2  0  0  0  0
 10 12  1  0  0  0  0
 12 39  1  0  0  0  0
 13 14  1  0  0  0  0
 13 15  1  0  0  0  0
 13 20  1  0  0  0  0
 15 16  1  0  0  0  0
 16 17  1  0  0  0  0
 16 40  1  0  0  0  0
 16 41  1  0  0  0  0
 17 18  2  0  0  0  0
 17 19  1  0  0  0  0
 19 42  1  0  0  0  0
 20 25  2  0  0  0  0
 20 21  1  0  0  0  0
 21 22  2  0  0  0  0
 21 43  1  0  0  0  0
 22 23  1  0  0  0  0
 22 44  1  0  0  0  0
 23 24  2  0  0  0  0
 23 45  1  0  0  0  0
 24 25  1  0  0  0  0
 24 46  1  0  0  0  0
 25 26  1  0  0  0  0
 26 27  1  0  0  0  0
 27 28  1  0  0  0  0
 27 47  1  0  0  0  0
 27 48  1  0  0  0  0
 28 49  1  0  0  0  0
 28 50  1  0  0  0  0
 28 51  1  0  0  0  0
M  END
$$$$
ZINC01271490
  -OEChem-08230709463D

 51 53  0     1  0  0  0  0  0999 V2000
   -1.5952    4.1579    7.7299 C   0  0  0  0  0  0  0  0  0  0  0  0
   -1.8416    4.7060    6.3229 C   0  0  0  0  0  0  0  0  0  0  0  0
   -1.6760    3.5798    5.3006 C   0  0  0  0  0  0  0  0  0  0  0  0
   -1.9224    4.1279    3.8935 C   0  0  2  0  0  0  0  0  0  0  0  0
   -1.2640    4.9779    3.7143 H   0  0  0  0  0  0  0  0  0  0  0  0
   -3.3798    4.5764    3.7690 C   0  0  0  0  0  0  0  0  0  0  0  0
   -1.6476    3.0807    2.9065 N   0  0  0  0  0  0  0  0  0  0  0  0
   -0.7056    3.1455    1.9007 C   0  0  0  0  0  0  0  0  0  0  0  0
   -0.7918    1.9692    1.2063 C   0  0  0  0  0  0  0  0  0  0  0  0
   -1.7918    1.1834    1.8165 C   0  0  0  0  0  0  0  0  0  0  0  0
   -2.2944    1.8481    2.8219 N   0  0  0  0  0  0  0  0  0  0  0  0
   -2.1697   -0.0621    1.4229 O   0  0  0  0  0  0  0  0  0  0  0  0
   -0.0184    1.5028    0.0103 C   0  0  1  0  0  0  0  0  0  0  0  0
   -0.5228    1.8520   -0.8906 H   0  0  0  0  0  0  0  0  0  0  0  0
    1.6738    2.1052   -0.0026 S   0  0  0  0  0  0  0  0  0  0  0  0
    1.5584    3.8874   -0.2113 C   0  0  0  0  0  0  0  0  0  0  0  0
    1.0002    4.5759    0.9714 C   0  0  0  0  0  0  0  0  0  0  0  0
    0.0844    4.2217    1.7488 N   0  0  0  0  0  0  0  0  0  0  0  0
    1.5636    5.7675    1.2575 O   0  0  0  0  0  0  0  0  0  0  0  0
    0.0021   -0.0041    0.0020 C   0  0  0  0  0  0  0  0  0  0  0  0
   -0.9781   -0.7051   -0.6738 C   0  0  0  0  0  0  0  0  0  0  0  0
   -0.9575   -2.0874   -0.6854 C   0  0  0  0  0  0  0  0  0  0  0  0
    0.0383   -2.7720   -0.0130 C   0  0  0  0  0  0  0  0  0  0  0  0
    1.0174   -2.0759    0.6685 C   0  0  0  0  0  0  0  0  0  0  0  0
    1.0017   -0.6884    0.6777 C   0  0  0  0  0  0  0  0  0  0  0  0
    1.9642   -0.0012    1.3471 O   0  0  0  0  0  0  0  0  0  0  0  0
    2.9620   -0.7715    2.0203 C   0  0  0  0  0  0  0  0  0  0  0  0
    3.9515    0.1684    2.7117 C   0  0  0  0  0  0  0  0  0  0  0  0
   -2.3134    3.3659    7.9423 H   0  0  0  0  0  0  0  0  0  0  0  0
   -0.5835    3.7571    7.7917 H   0  0  0  0  0  0  0  0  0  0  0  0
   -1.7133    4.9602    8.4582 H   0  0  0  0  0  0  0  0  0  0  0  0
   -1.1235    5.4980    6.1105 H   0  0  0  0  0  0  0  0  0  0  0  0
   -2.8534    5.1068    6.2611 H   0  0  0  0  0  0  0  0  0  0  0  0
   -2.3941    2.7878    5.5129 H   0  0  0  0  0  0  0  0  0  0  0  0
   -0.6642    3.1790    5.3623 H   0  0  0  0  0  0  0  0  0  0  0  0
   -3.5843    5.3555    4.5033 H   0  0  0  0  0  0  0  0  0  0  0  0
   -3.5554    4.9669    2.7666 H   0  0  0  0  0  0  0  0  0  0  0  0
   -4.0382    3.7264    3.9482 H   0  0  0  0  0  0  0  0  0  0  0  0
   -1.6735   -0.7759    1.8463 H   0  0  0  0  0  0  0  0  0  0  0  0
    2.5550    4.2822   -0.4087 H   0  0  0  0  0  0  0  0  0  0  0  0
    0.9237    4.0990   -1.0719 H   0  0  0  0  0  0  0  0  0  0  0  0
    1.2194    6.2425    2.0263 H   0  0  0  0  0  0  0  0  0  0  0  0
   -1.7589   -0.1728   -1.1966 H   0  0  0  0  0  0  0  0  0  0  0  0
   -1.7222   -2.6335   -1.2177 H   0  0  0  0  0  0  0  0  0  0  0  0
    0.0501   -3.8519   -0.0204 H   0  0  0  0  0  0  0  0  0  0  0  0
    1.7945   -2.6110    1.1941 H   0  0  0  0  0  0  0  0  0  0  0  0
    2.4868   -1.4104    2.7647 H   0  0  0  0  0  0  0  0  0  0  0  0
    3.4932   -1.3899    1.2967 H   0  0  0  0  0  0  0  0  0  0  0  0
    4.4267    0.8073    1.9673 H   0  0  0  0  0  0  0  0  0  0  0  0
    3.4203    0.7868    3.4353 H   0  0  0  0  0  0  0  0  0  0  0  0
    4.7126   -0.4191    3.2252 H   0  0  0  0  0  0  0  0  0  0  0  0
  1  2  1  0  0  0  0
  1 29  1  0  0  0  0
  1 30  1  0  0  0  0
  1 31  1  0  0  0  0
  2  3  1  0  0  0  0
  2 32  1  0  0  0  0
  2 33  1  0  0  0  0
  3  4  1  0  0  0  0
  3 34  1  0  0  0  0
  3 35  1  0  0  0  0
  4  5  1  0  0  0  0
  4  6  1  0  0  0  0
  4  7  1  0  0  0  0
  6 36  1  0  0  0  0
  6 37  1  0  0  0  0
  6 38  1  0  0  0  0
  7 11  1  0  0  0  0
  7  8  1  0  0  0  0
  8 18  1  0  0  0  0
  8  9  2  0  0  0  0
  9 10  1  0  0  0  0
  9 13  1  0  0  0  0
 10 11  2  0  0  0  0
 10 12  1  0  0  0  0
 12 39  1  0  0  0  0
 13 14  1  0  0  0  0
 13 15  1  0  0  0  0
 13 20  1  0  0  0  0
 15 16  1  0  0  0  0
 16 17  1  0  0  0  0
 16 40  1  0  0  0  0
 16 41  1  0  0  0  0
 17 18  2  0  0  0  0
 17 19  1  0  0  0  0
 19 42  1  0  0  0  0
 20 25  2  0  0  0  0
 20 21  1  0  0  0  0
 21 22  2  0  0  0  0
 21 43  1  0  0  0  0
 22 23  1  0  0  0  0
 22 44  1  0  0  0  0
 23 24  2  0  0  0  0
 23 45  1  0  0  0  0
 24 25  1  0  0  0  0
 24 46  1  0  0  0  0
 25 26  1  0  0  0  0
 26 27  1  0  0  0  0
 27 28  1  0  0  0  0
 27 47  1  0  0  0  0
 27 48  1  0  0  0  0
 28 49  1  0  0  0  0
 28 50  1  0  0  0  0
 28 51  1  0  0  0  0
M  END
$$$$
ZINC01272297
  -OEChem-08230709463D

 56 59  0     1  0  0  0  0  0999 V2000
    1.9702   -4.1955   -7.7221 C   0  0  0  0  0  0  0  0  0  0  0  0
    2.9684   -3.1076   -8.1231 C   0  0  0  0  0  0  0  0  0  0  0  0
    3.7345   -2.7196   -6.9809 O   0  0  0  0  0  0  0  0  0  0  0  0
    4.6737   -1.7551   -7.1666 C   0  0  0  0  0  0  0  0  0  0  0  0
    4.8540   -1.1932   -8.4224 C   0  0  0  0  0  0  0  0  0  0  0  0
    5.8089   -0.2128   -8.6084 C   0  0  0  0  0  0  0  0  0  0  0  0
    6.5850    0.2090   -7.5443 C   0  0  0  0  0  0  0  0  0  0  0  0
    6.4037   -0.3456   -6.2910 C   0  0  0  0  0  0  0  0  0  0  0  0
    5.4535   -1.3304   -6.1009 C   0  0  0  0  0  0  0  0  0  0  0  0
    5.2600   -1.9381   -4.7355 C   0  0  2  0  0  0  0  0  0  0  0  0
    4.9766   -2.9838   -4.8553 H   0  0  0  0  0  0  0  0  0  0  0  0
    4.1497   -1.2132   -4.0364 C   0  0  0  0  0  0  0  0  0  0  0  0
    3.1172   -0.5540   -4.7360 C   0  0  0  0  0  0  0  0  0  0  0  0
    2.2900   -0.0311   -3.8715 N   0  0  0  0  0  0  0  0  0  0  0  0
    2.7508   -0.3182   -2.5869 N   0  0  0  0  0  0  0  0  0  0  0  0
    3.9125   -1.0541   -2.6982 C   0  0  0  0  0  0  0  0  0  0  0  0
    4.5884   -1.4642   -1.6115 N   0  0  0  0  0  0  0  0  0  0  0  0
    5.6307   -2.1200   -1.3831 C   0  0  0  0  0  0  0  0  0  0  0  0
    6.5557   -2.7875   -2.3226 C   0  0  0  0  0  0  0  0  0  0  0  0
    6.8149   -1.8579   -3.8397 S   0  0  0  0  0  0  0  0  0  0  0  0
    5.9596   -2.2341   -0.0800 O   0  0  0  0  0  0  0  0  0  0  0  0
    2.1083    0.0868   -1.3342 C   0  0  1  0  0  0  0  0  0  0  0  0
    2.6915   -0.2805   -0.4898 H   0  0  0  0  0  0  0  0  0  0  0  0
    2.0216    1.6150   -1.2734 C   0  0  0  0  0  0  0  0  0  0  0  0
    1.2791    2.0260    0.0007 C   0  0  0  0  0  0  0  0  0  0  0  0
   -0.0173    1.4248    0.0099 O   0  0  0  0  0  0  0  0  0  0  0  0
    0.0021   -0.0041    0.0020 C   0  0  0  0  0  0  0  0  0  0  0  0
    0.6933   -0.4966   -1.2721 C   0  0  0  0  0  0  0  0  0  0  0  0
    0.7674   -0.5107    1.2262 C   0  0  0  0  0  0  0  0  0  0  0  0
   -1.4327   -0.5340    0.0416 C   0  0  0  0  0  0  0  0  0  0  0  0
    2.9991   -0.4808   -6.0887 O   0  0  0  0  0  0  0  0  0  0  0  0
    1.3031   -3.8102   -6.9510 H   0  0  0  0  0  0  0  0  0  0  0  0
    1.3858   -4.4915   -8.5933 H   0  0  0  0  0  0  0  0  0  0  0  0
    2.5105   -5.0600   -7.3362 H   0  0  0  0  0  0  0  0  0  0  0  0
    2.4282   -2.2431   -8.5089 H   0  0  0  0  0  0  0  0  0  0  0  0
    3.6355   -3.4930   -8.8942 H   0  0  0  0  0  0  0  0  0  0  0  0
    4.2479   -1.5220   -9.2536 H   0  0  0  0  0  0  0  0  0  0  0  0
    5.9493    0.2252   -9.5856 H   0  0  0  0  0  0  0  0  0  0  0  0
    7.3311    0.9757   -7.6918 H   0  0  0  0  0  0  0  0  0  0  0  0
    7.0083   -0.0116   -5.4607 H   0  0  0  0  0  0  0  0  0  0  0  0
    6.1505   -3.7669   -2.5767 H   0  0  0  0  0  0  0  0  0  0  0  0
    7.5172   -2.9264   -1.8282 H   0  0  0  0  0  0  0  0  0  0  0  0
    5.3731   -1.8076    0.5597 H   0  0  0  0  0  0  0  0  0  0  0  0
    3.0267    2.0366   -1.2613 H   0  0  0  0  0  0  0  0  0  0  0  0
    1.4822    1.9842   -2.1456 H   0  0  0  0  0  0  0  0  0  0  0  0
    1.1769    3.1108    0.0280 H   0  0  0  0  0  0  0  0  0  0  0  0
    1.8410    1.6916    0.8728 H   0  0  0  0  0  0  0  0  0  0  0  0
    0.7484   -1.5852   -1.2590 H   0  0  0  0  0  0  0  0  0  0  0  0
    0.1261   -0.1701   -2.1437 H   0  0  0  0  0  0  0  0  0  0  0  0
    0.2757   -0.1591    2.1332 H   0  0  0  0  0  0  0  0  0  0  0  0
    0.7820   -1.6006    1.2200 H   0  0  0  0  0  0  0  0  0  0  0  0
    1.7896   -0.1334    1.1974 H   0  0  0  0  0  0  0  0  0  0  0  0
   -1.9774   -0.1733   -0.8309 H   0  0  0  0  0  0  0  0  0  0  0  0
   -1.4177   -1.6239    0.0356 H   0  0  0  0  0  0  0  0  0  0  0  0
   -1.9250   -0.1824    0.9483 H   0  0  0  0  0  0  0  0  0  0  0  0
    2.4890   -1.2038   -6.4788 H   0  0  0  0  0  0  0  0  0  0  0  0
  1  2  1  0  0  0  0
  1 32  1  0  0  0  0
  1 33  1  0  0  0  0
  1 34  1  0  0  0  0
  2  3  1  0  0  0  0
  2 35  1  0  0  0  0
  2 36  1  0  0  0  0
  3  4  1  0  0  0  0
  4  9  2  0  0  0  0
  4  5  1  0  0  0  0
  5  6  2  0  0  0  0
  5 37  1  0  0  0  0
  6  7  1  0  0  0  0
  6 38  1  0  0  0  0
  7  8  2  0  0  0  0
  7 39  1  0  0  0  0
  8  9  1  0  0  0  0
  8 40  1  0  0  0  0
  9 10  1  0  0  0  0
 10 11  1  0  0  0  0
 10 20  1  0  0  0  0
 10 12  1  0  0  0  0
 12 16  2  0  0  0  0
 12 13  1  0  0  0  0
 13 14  2  0  0  0  0
 13 31  1  0  0  0  0
 14 15  1  0  0  0  0
 15 16  1  0  0  0  0
 15 22  1  0  0  0  0
 16 17  1  0  0  0  0
 17 18  2  0  0  0  0
 18 19  1  0  0  0  0
 18 21  1  0  0  0  0
 19 20  1  0  0  0  0
 19 41  1  0  0  0  0
 19 42  1  0  0  0  0
 21 43  1  0  0  0  0
 22 23  1  0  0  0  0
 22 28  1  0  0  0  0
 22 24  1  0  0  0  0
 24 25  1  0  0  0  0
 24 44  1  0  0  0  0
 24 45  1  0  0  0  0
 25 26  1  0  0  0  0
 25 46  1  0  0  0  0
 25 47  1  0  0  0  0
 26 27  1  0  0  0  0
 27 28  1  0  0  0  0
 27 29  1  0  0  0  0
 27 30  1  0  0  0  0
 28 48  1  0  0  0  0
 28 49  1  0  0  0  0
 29 50  1  0  0  0  0
 29 51  1  0  0  0  0
 29 52  1  0  0  0  0
 30 53  1  0  0  0  0
 30 54  1  0  0  0  0
 30 55  1  0  0  0  0
 31 56  1  0  0  0  0
M  END
$$$$
ZINC01272298
  -OEChem-08230709463D

 56 59  0     1  0  0  0  0  0999 V2000
   -0.0187    1.5258    0.0104 C   0  0  0  0  0  0  0  0  0  0  0  0
    0.0021   -0.0041    0.0020 C   0  0  0  0  0  0  0  0  0  0  0  0
   -1.3386   -0.4987    0.0122 O   0  0  0  0  0  0  0  0  0  0  0  0
   -1.4983   -1.8483    0.0064 C   0  0  0  0  0  0  0  0  0  0  0  0
   -0.3874   -2.6795   -0.0086 C   0  0  0  0  0  0  0  0  0  0  0  0
   -0.5525   -4.0508   -0.0145 C   0  0  0  0  0  0  0  0  0  0  0  0
   -1.8236   -4.5955   -0.0048 C   0  0  0  0  0  0  0  0  0  0  0  0
   -2.9320   -3.7694    0.0106 C   0  0  0  0  0  0  0  0  0  0  0  0
   -2.7722   -2.3971    0.0214 C   0  0  0  0  0  0  0  0  0  0  0  0
   -3.9808   -1.4973    0.0440 C   0  0  1  0  0  0  0  0  0  0  0  0
   -4.8200   -2.0251   -0.4090 H   0  0  0  0  0  0  0  0  0  0  0  0
   -4.3227   -1.1827    1.4690 C   0  0  0  0  0  0  0  0  0  0  0  0
   -3.9799   -2.0374    2.5374 C   0  0  0  0  0  0  0  0  0  0  0  0
   -4.4110   -1.5115    3.6522 N   0  0  0  0  0  0  0  0  0  0  0  0
   -5.0461   -0.3054    3.3572 N   0  0  0  0  0  0  0  0  0  0  0  0
   -4.9782   -0.1022    1.9944 C   0  0  0  0  0  0  0  0  0  0  0  0
   -5.4973    0.9976    1.4232 N   0  0  0  0  0  0  0  0  0  0  0  0
   -5.5946    1.4612    0.2638 C   0  0  0  0  0  0  0  0  0  0  0  0
   -5.1778    0.8773   -1.0284 C   0  0  0  0  0  0  0  0  0  0  0  0
   -3.6278   -0.0283   -0.9276 S   0  0  0  0  0  0  0  0  0  0  0  0
   -6.1669    2.6798    0.1819 O   0  0  0  0  0  0  0  0  0  0  0  0
   -5.6772    0.5919    4.3282 C   0  0  2  0  0  0  0  0  0  0  0  0
   -6.0944    1.4550    3.8095 H   0  0  0  0  0  0  0  0  0  0  0  0
   -4.6332    1.0612    5.3462 C   0  0  0  0  0  0  0  0  0  0  0  0
   -5.3172    1.9343    6.4014 C   0  0  0  0  0  0  0  0  0  0  0  0
   -6.3648    1.1904    7.0270 O   0  0  0  0  0  0  0  0  0  0  0  0
   -7.3942    0.7659    6.1313 C   0  0  0  0  0  0  0  0  0  0  0  0
   -6.7936   -0.1542    5.0653 C   0  0  0  0  0  0  0  0  0  0  0  0
   -8.4695    0.0079    6.9124 C   0  0  0  0  0  0  0  0  0  0  0  0
   -8.0198    1.9884    5.4568 C   0  0  0  0  0  0  0  0  0  0  0  0
   -3.3105   -3.2158    2.4250 O   0  0  0  0  0  0  0  0  0  0  0  0
    1.0039    1.9031    0.0027 H   0  0  0  0  0  0  0  0  0  0  0  0
   -0.5459    1.8868   -0.8726 H   0  0  0  0  0  0  0  0  0  0  0  0
   -0.5289    1.8773    0.9072 H   0  0  0  0  0  0  0  0  0  0  0  0
    0.5123   -0.3556   -0.8948 H   0  0  0  0  0  0  0  0  0  0  0  0
    0.5293   -0.3651    0.8851 H   0  0  0  0  0  0  0  0  0  0  0  0
    0.6054   -2.2546   -0.0154 H   0  0  0  0  0  0  0  0  0  0  0  0
    0.3119   -4.6982   -0.0262 H   0  0  0  0  0  0  0  0  0  0  0  0
   -1.9505   -5.6680   -0.0091 H   0  0  0  0  0  0  0  0  0  0  0  0
   -3.9236   -4.1972    0.0185 H   0  0  0  0  0  0  0  0  0  0  0  0
   -5.0673    1.6809   -1.7566 H   0  0  0  0  0  0  0  0  0  0  0  0
   -5.9584    0.1987   -1.3723 H   0  0  0  0  0  0  0  0  0  0  0  0
   -6.4504    3.0882    1.0113 H   0  0  0  0  0  0  0  0  0  0  0  0
   -4.1796    0.1952    5.8283 H   0  0  0  0  0  0  0  0  0  0  0  0
   -3.8625    1.6399    4.8371 H   0  0  0  0  0  0  0  0  0  0  0  0
   -4.5871    2.2361    7.1523 H   0  0  0  0  0  0  0  0  0  0  0  0
   -5.7356    2.8205    5.9242 H   0  0  0  0  0  0  0  0  0  0  0  0
   -7.5685   -0.4437    4.3555 H   0  0  0  0  0  0  0  0  0  0  0  0
   -6.3836   -1.0447    5.5417 H   0  0  0  0  0  0  0  0  0  0  0  0
   -8.8963    0.6628    7.6720 H   0  0  0  0  0  0  0  0  0  0  0  0
   -9.2546   -0.3158    6.2291 H   0  0  0  0  0  0  0  0  0  0  0  0
   -8.0237   -0.8632    7.3925 H   0  0  0  0  0  0  0  0  0  0  0  0
   -7.2537    2.5280    4.9001 H   0  0  0  0  0  0  0  0  0  0  0  0
   -8.8050    1.6644    4.7737 H   0  0  0  0  0  0  0  0  0  0  0  0
   -8.4465    2.6437    6.2161 H   0  0  0  0  0  0  0  0  0  0  0  0
   -3.8845   -3.9835    2.2974 H   0  0  0  0  0  0  0  0  0  0  0  0
  1  2  1  0  0  0  0
  1 32  1  0  0  0  0
  1 33  1  0  0  0  0
  1 34  1  0  0  0  0
  2  3  1  0  0  0  0
  2 35  1  0  0  0  0
  2 36  1  0  0  0  0
  3  4  1  0  0  0  0
  4  9  2  0  0  0  0
  4  5  1  0  0  0  0
  5  6  2  0  0  0  0
  5 37  1  0  0  0  0
  6  7  1  0  0  0  0
  6 38  1  0  0  0  0
  7  8  2  0  0  0  0
  7 39  1  0  0  0  0
  8  9  1  0  0  0  0
  8 40  1  0  0  0  0
  9 10  1  0  0  0  0
 10 11  1  0  0  0  0
 10 20  1  0  0  0  0
 10 12  1  0  0  0  0
 12 16  2  0  0  0  0
 12 13  1  0  0  0  0
 13 14  2  0  0  0  0
 13 31  1  0  0  0  0
 14 15  1  0  0  0  0
 15 16  1  0  0  0  0
 15 22  1  0  0  0  0
 16 17  1  0  0  0  0
 17 18  2  0  0  0  0
 18 19  1  0  0  0  0
 18 21  1  0  0  0  0
 19 20  1  0  0  0  0
 19 41  1  0  0  0  0
 19 42  1  0  0  0  0
 21 43  1  0  0  0  0
 22 23  1  0  0  0  0
 22 28  1  0  0  0  0
 22 24  1  0  0  0  0
 24 25  1  0  0  0  0
 24 44  1  0  0  0  0
 24 45  1  0  0  0  0
 25 26  1  0  0  0  0
 25 46  1  0  0  0  0
 25 47  1  0  0  0  0
 26 27  1  0  0  0  0
 27 28  1  0  0  0  0
 27 29  1  0  0  0  0
 27 30  1  0  0  0  0
 28 48  1  0  0  0  0
 28 49  1  0  0  0  0
 29 50  1  0  0  0  0
 29 51  1  0  0  0  0
 29 52  1  0  0  0  0
 30 53  1  0  0  0  0
 30 54  1  0  0  0  0
 30 55  1  0  0  0  0
 31 56  1  0  0  0  0
M  END
$$$$
ZINC01272299
  -OEChem-08230709463D

 56 59  0     1  0  0  0  0  0999 V2000
   -3.9580   -0.1476    6.2220 C   0  0  0  0  0  0  0  0  0  0  0  0
   -3.4262    1.2320    6.6154 C   0  0  0  0  0  0  0  0  0  0  0  0
   -3.3774    2.0711    5.4597 O   0  0  0  0  0  0  0  0  0  0  0  0
   -2.9245    3.3401    5.6373 C   0  0  0  0  0  0  0  0  0  0  0  0
   -2.5354    3.7690    6.8982 C   0  0  0  0  0  0  0  0  0  0  0  0
   -2.0759    5.0594    7.0761 C   0  0  0  0  0  0  0  0  0  0  0  0
   -2.0038    5.9236    5.9989 C   0  0  0  0  0  0  0  0  0  0  0  0
   -2.3855    5.4969    4.7406 C   0  0  0  0  0  0  0  0  0  0  0  0
   -2.8508    4.2087    4.5584 C   0  0  0  0  0  0  0  0  0  0  0  0
   -3.2721    3.7460    3.1874 C   0  0  2  0  0  0  0  0  0  0  0  0
   -4.1293    3.0804    3.2896 H   0  0  0  0  0  0  0  0  0  0  0  0
   -2.1398    2.9844    2.5674 C   0  0  0  0  0  0  0  0  0  0  0  0
   -1.1625    2.3192    3.3370 C   0  0  0  0  0  0  0  0  0  0  0  0
   -0.3173    1.7354    2.5308 N   0  0  0  0  0  0  0  0  0  0  0  0
   -0.7013    2.0018    1.2168 N   0  0  0  0  0  0  0  0  0  0  0  0
   -1.8377    2.7835    1.2478 C   0  0  0  0  0  0  0  0  0  0  0  0
   -2.4286    3.2057    0.1172 N   0  0  0  0  0  0  0  0  0  0  0  0
   -3.4268    3.9000   -0.1829 C   0  0  0  0  0  0  0  0  0  0  0  0
   -4.4449    4.5225    0.6889 C   0  0  0  0  0  0  0  0  0  0  0  0
   -3.7617    5.1767    2.2180 S   0  0  0  0  0  0  0  0  0  0  0  0
   -3.5988    4.1123   -1.5037 O   0  0  0  0  0  0  0  0  0  0  0  0
   -0.0187    1.5275    0.0104 C   0  0  2  0  0  0  0  0  0  0  0  0
   -0.5436    1.8900   -0.8734 H   0  0  0  0  0  0  0  0  0  0  0  0
    0.0021   -0.0041    0.0020 C   0  0  0  0  0  0  0  0  0  0  0  0
    0.7852   -0.4893   -1.2207 C   0  0  0  0  0  0  0  0  0  0  0  0
    2.1062    0.0545   -1.1851 O   0  0  0  0  0  0  0  0  0  0  0  0
    2.1506    1.4824   -1.2231 C   0  0  0  0  0  0  0  0  0  0  0  0
    1.4223    2.0468   -0.0005 C   0  0  0  0  0  0  0  0  0  0  0  0
    3.6079    1.9481   -1.2089 C   0  0  0  0  0  0  0  0  0  0  0  0
    1.4679    1.9803   -2.4986 C   0  0  0  0  0  0  0  0  0  0  0  0
   -1.1120    2.2867    4.6956 O   0  0  0  0  0  0  0  0  0  0  0  0
   -4.9598   -0.0453    5.8047 H   0  0  0  0  0  0  0  0  0  0  0  0
   -3.2979   -0.5926    5.4774 H   0  0  0  0  0  0  0  0  0  0  0  0
   -3.9952   -0.7876    7.1035 H   0  0  0  0  0  0  0  0  0  0  0  0
   -2.4244    1.1298    7.0327 H   0  0  0  0  0  0  0  0  0  0  0  0
   -4.0862    1.6771    7.3600 H   0  0  0  0  0  0  0  0  0  0  0  0
   -2.5915    3.0944    7.7397 H   0  0  0  0  0  0  0  0  0  0  0  0
   -1.7729    5.3937    8.0573 H   0  0  0  0  0  0  0  0  0  0  0  0
   -1.6443    6.9322    6.1401 H   0  0  0  0  0  0  0  0  0  0  0  0
   -2.3241    6.1723    3.9001 H   0  0  0  0  0  0  0  0  0  0  0  0
   -4.9237    5.3356    0.1430 H   0  0  0  0  0  0  0  0  0  0  0  0
   -5.2003    3.7759    0.9339 H   0  0  0  0  0  0  0  0  0  0  0  0
   -2.9480    3.7176   -2.1002 H   0  0  0  0  0  0  0  0  0  0  0  0
    0.4833   -0.3668    0.9103 H   0  0  0  0  0  0  0  0  0  0  0  0
   -1.0192   -0.3819   -0.0461 H   0  0  0  0  0  0  0  0  0  0  0  0
    0.8398   -1.5779   -1.2088 H   0  0  0  0  0  0  0  0  0  0  0  0
    0.2809   -0.1605   -2.1293 H   0  0  0  0  0  0  0  0  0  0  0  0
    1.4168    3.1357   -0.0504 H   0  0  0  0  0  0  0  0  0  0  0  0
    1.9322    1.7255    0.9077 H   0  0  0  0  0  0  0  0  0  0  0  0
    4.1266    1.5453   -2.0789 H   0  0  0  0  0  0  0  0  0  0  0  0
    3.6416    3.0372   -1.2379 H   0  0  0  0  0  0  0  0  0  0  0  0
    4.0938    1.5936   -0.2999 H   0  0  0  0  0  0  0  0  0  0  0  0
    0.4296    1.6488   -2.5081 H   0  0  0  0  0  0  0  0  0  0  0  0
    1.5019    3.0694   -2.5274 H   0  0  0  0  0  0  0  0  0  0  0  0
    1.9860    1.5775   -3.3690 H   0  0  0  0  0  0  0  0  0  0  0  0
   -1.5950    1.5475    5.0896 H   0  0  0  0  0  0  0  0  0  0  0  0
  1  2  1  0  0  0  0
  1 32  1  0  0  0  0
  1 33  1  0  0  0  0
  1 34  1  0  0  0  0
  2  3  1  0  0  0  0
  2 35  1  0  0  0  0
  2 36  1  0  0  0  0
  3  4  1  0  0  0  0
  4  9  2  0  0  0  0
  4  5  1  0  0  0  0
  5  6  2  0  0  0  0
  5 37  1  0  0  0  0
  6  7  1  0  0  0  0
  6 38  1  0  0  0  0
  7  8  2  0  0  0  0
  7 39  1  0  0  0  0
  8  9  1  0  0  0  0
  8 40  1  0  0  0  0
  9 10  1  0  0  0  0
 10 11  1  0  0  0  0
 10 20  1  0  0  0  0
 10 12  1  0  0  0  0
 12 16  2  0  0  0  0
 12 13  1  0  0  0  0
 13 14  2  0  0  0  0
 13 31  1  0  0  0  0
 14 15  1  0  0  0  0
 15 16  1  0  0  0  0
 15 22  1  0  0  0  0
 16 17  1  0  0  0  0
 17 18  2  0  0  0  0
 18 19  1  0  0  0  0
 18 21  1  0  0  0  0
 19 20  1  0  0  0  0
 19 41  1  0  0  0  0
 19 42  1  0  0  0  0
 21 43  1  0  0  0  0
 22 23  1  0  0  0  0
 22 28  1  0  0  0  0
 22 24  1  0  0  0  0
 24 25  1  0  0  0  0
 24 44  1  0  0  0  0
 24 45  1  0  0  0  0
 25 26  1  0  0  0  0
 25 46  1  0  0  0  0
 25 47  1  0  0  0  0
 26 27  1  0  0  0  0
 27 28  1  0  0  0  0
 27 29  1  0  0  0  0
 27 30  1  0  0  0  0
 28 48  1  0  0  0  0
 28 49  1  0  0  0  0
 29 50  1  0  0  0  0
 29 51  1  0  0  0  0
 29 52  1  0  0  0  0
 30 53  1  0  0  0  0
 30 54  1  0  0  0  0
 30 55  1  0  0  0  0
 31 56  1  0  0  0  0
M  END
$$$$
ZINC01273545
  -OEChem-08230709463D

 50 52  0     0  0  0  0  0  0999 V2000
    2.4133    5.1243   -0.1354 C   0  0  0  0  0  0  0  0  0  0  0  0
    2.4634    3.7936   -0.8888 C   0  0  0  0  0  0  0  0  0  0  0  0
    3.6170    2.9454   -0.3496 C   0  0  0  0  0  0  0  0  0  0  0  0
    2.6795    4.0596   -2.3799 C   0  0  0  0  0  0  0  0  0  0  0  0
    1.1637    3.0563   -0.6932 C   0  0  0  0  0  0  0  0  0  0  0  0
   -0.0240    3.6326   -1.1075 C   0  0  0  0  0  0  0  0  0  0  0  0
   -1.2173    2.9631   -0.9314 C   0  0  0  0  0  0  0  0  0  0  0  0
   -1.2252    1.7038   -0.3291 C   0  0  0  0  0  0  0  0  0  0  0  0
   -0.0229    1.1263    0.0826 C   0  0  0  0  0  0  0  0  0  0  0  0
    1.1635    1.8064   -0.0998 C   0  0  0  0  0  0  0  0  0  0  0  0
   -2.5006    0.9834   -0.1318 C   0  0  0  0  0  0  0  0  0  0  0  0
   -2.6434   -0.2997    0.1080 N   0  0  0  0  0  0  0  0  0  0  0  0
   -3.8898   -0.5890    0.2257 N   0  0  0  0  0  0  0  0  0  0  0  0
   -4.6219    0.4915    0.0685 C   0  0  0  0  0  0  0  0  0  0  0  0
   -3.7638    1.5321   -0.1587 N   0  0  0  0  0  0  0  0  0  0  0  0
   -4.1001    2.8769   -0.3767 C   0  0  0  0  0  0  0  0  0  0  0  0
   -3.7747    3.8365    0.5721 C   0  0  0  0  0  0  0  0  0  0  0  0
   -4.1012    5.1605    0.3547 C   0  0  0  0  0  0  0  0  0  0  0  0
   -4.7641    5.5300   -0.8066 C   0  0  0  0  0  0  0  0  0  0  0  0
   -5.0946    4.5705   -1.7525 C   0  0  0  0  0  0  0  0  0  0  0  0
   -4.7634    3.2471   -1.5386 C   0  0  0  0  0  0  0  0  0  0  0  0
   -5.0903    6.8328   -1.0176 O   0  0  0  0  0  0  0  0  0  0  0  0
   -4.7195    7.7672   -0.0020 C   0  0  0  0  0  0  0  0  0  0  0  0
   -6.3799    0.5834    0.1436 S   0  0  0  0  0  0  0  0  0  0  0  0
   -6.7712   -1.1518    0.4786 C   0  0  0  0  0  0  0  0  0  0  0  0
   -8.2651   -1.3180    0.5867 C   0  0  0  0  0  0  0  0  0  0  0  0
   -8.9907   -0.3615    0.4512 O   0  0  0  0  0  0  0  0  0  0  0  0
    2.2593    4.9348    0.9269 H   0  0  0  0  0  0  0  0  0  0  0  0
    3.3534    5.6576   -0.2768 H   0  0  0  0  0  0  0  0  0  0  0  0
    1.5915    5.7286   -0.5195 H   0  0  0  0  0  0  0  0  0  0  0  0
    3.6528    1.9974   -0.8863 H   0  0  0  0  0  0  0  0  0  0  0  0
    4.5571    3.4787   -0.4910 H   0  0  0  0  0  0  0  0  0  0  0  0
    3.4631    2.7559    0.7127 H   0  0  0  0  0  0  0  0  0  0  0  0
    1.8577    4.6638   -2.7640 H   0  0  0  0  0  0  0  0  0  0  0  0
    3.6196    4.5928   -2.5213 H   0  0  0  0  0  0  0  0  0  0  0  0
    2.7153    3.1116   -2.9166 H   0  0  0  0  0  0  0  0  0  0  0  0
   -0.0169    4.6085   -1.5700 H   0  0  0  0  0  0  0  0  0  0  0  0
   -2.1438    3.4141   -1.2549 H   0  0  0  0  0  0  0  0  0  0  0  0
   -0.0218    0.1509    0.5462 H   0  0  0  0  0  0  0  0  0  0  0  0
    2.0940    1.3624    0.2216 H   0  0  0  0  0  0  0  0  0  0  0  0
   -3.2626    3.5483    1.4782 H   0  0  0  0  0  0  0  0  0  0  0  0
   -3.8444    5.9078    1.0909 H   0  0  0  0  0  0  0  0  0  0  0  0
   -5.6106    4.8586   -2.6564 H   0  0  0  0  0  0  0  0  0  0  0  0
   -5.0207    2.5002   -2.2750 H   0  0  0  0  0  0  0  0  0  0  0  0
   -3.6372    7.7534    0.1267 H   0  0  0  0  0  0  0  0  0  0  0  0
   -5.0378    8.7676   -0.2949 H   0  0  0  0  0  0  0  0  0  0  0  0
   -5.2005    7.4932    0.9370 H   0  0  0  0  0  0  0  0  0  0  0  0
   -6.3944   -1.7727   -0.3342 H   0  0  0  0  0  0  0  0  0  0  0  0
   -6.3031   -1.4556    1.4149 H   0  0  0  0  0  0  0  0  0  0  0  0
   -8.7896   -2.5287    0.8335 O   0  5  0  0  0  0  0  0  0  0  0  0
  1  2  1  0  0  0  0
  1 28  1  0  0  0  0
  1 29  1  0  0  0  0
  1 30  1  0  0  0  0
  2  3  1  0  0  0  0
  2  4  1  0  0  0  0
  2  5  1  0  0  0  0
  3 31  1  0  0  0  0
  3 32  1  0  0  0  0
  3 33  1  0  0  0  0
  4 34  1  0  0  0  0
  4 35  1  0  0  0  0
  4 36  1  0  0  0  0
  5 10  2  0  0  0  0
  5  6  1  0  0  0  0
  6  7  2  0  0  0  0
  6 37  1  0  0  0  0
  7  8  1  0  0  0  0
  7 38  1  0  0  0  0
  8  9  2  0  0  0  0
  8 11  1  0  0  0  0
  9 10  1  0  0  0  0
  9 39  1  0  0  0  0
 10 40  1  0  0  0  0
 11 15  1  0  0  0  0
 11 12  2  0  0  0  0
 12 13  1  0  0  0  0
 13 14  2  0  0  0  0
 14 15  1  0  0  0  0
 14 24  1  0  0  0  0
 15 16  1  0  0  0  0
 16 21  2  0  0  0  0
 16 17  1  0  0  0  0
 17 18  2  0  0  0  0
 17 41  1  0  0  0  0
 18 19  1  0  0  0  0
 18 42  1  0  0  0  0
 19 20  2  0  0  0  0
 19 22  1  0  0  0  0
 20 21  1  0  0  0  0
 20 43  1  0  0  0  0
 21 44  1  0  0  0  0
 22 23  1  0  0  0  0
 23 45  1  0  0  0  0
 23 46  1  0  0  0  0
 23 47  1  0  0  0  0
 24 25  1  0  0  0  0
 25 26  1  0  0  0  0
 25 48  1  0  0  0  0
 25 49  1  0  0  0  0
 26 27  2  0  0  0  0
 26 50  1  0  0  0  0
M  CHG  1  50  -1
M  END
$$$$
ZINC01274022
  -OEChem-08230709463D

 55 58  0     1  0  0  0  0  0999 V2000
    1.1871    3.5707    4.9083 C   0  0  0  0  0  0  0  0  0  0  0  0
    2.5257    3.4392    4.1791 C   0  0  0  0  0  0  0  0  0  0  0  0
    2.2947    3.3498    2.7717 O   0  0  0  0  0  0  0  0  0  0  0  0
    3.3878    3.2276    1.9736 C   0  0  0  0  0  0  0  0  0  0  0  0
    4.6566    3.1891    2.5339 C   0  0  0  0  0  0  0  0  0  0  0  0
    5.7664    3.0706    1.7202 C   0  0  0  0  0  0  0  0  0  0  0  0
    5.6134    2.9845    0.3485 C   0  0  0  0  0  0  0  0  0  0  0  0
    4.3500    3.0174   -0.2119 C   0  0  0  0  0  0  0  0  0  0  0  0
    3.2368    3.1358    0.5978 C   0  0  0  0  0  0  0  0  0  0  0  0
    1.8599    3.1716   -0.0138 C   0  0  1  0  0  0  0  0  0  0  0  0
    1.9433    3.5079   -1.0472 H   0  0  0  0  0  0  0  0  0  0  0  0
    1.2887    1.7857   -0.0007 C   0  0  0  0  0  0  0  0  0  0  0  0
    2.1006    0.6321   -0.0057 C   0  0  0  0  0  0  0  0  0  0  0  0
    1.3321   -0.4236   -0.0038 N   0  0  0  0  0  0  0  0  0  0  0  0
    0.0021   -0.0041    0.0020 N   0  0  0  0  0  0  0  0  0  0  0  0
   -0.0166    1.3754    0.0096 C   0  0  0  0  0  0  0  0  0  0  0  0
   -1.1728    2.0600    0.0331 N   0  0  0  0  0  0  0  0  0  0  0  0
   -1.5161    3.2644    0.0445 C   0  0  0  0  0  0  0  0  0  0  0  0
   -0.6882    4.4867   -0.0212 C   0  0  0  0  0  0  0  0  0  0  0  0
    0.8520    4.3476    0.8961 S   0  0  0  0  0  0  0  0  0  0  0  0
   -2.8450    3.4787    0.1294 O   0  0  0  0  0  0  0  0  0  0  0  0
   -1.1735   -0.8783    0.0008 C   0  0  0  0  0  0  0  0  0  0  0  0
   -1.1735   -1.7172    1.2952 C   0  0  0  0  0  0  0  0  0  0  0  0
   -2.5728   -2.2108    1.5450 C   0  0  0  0  0  0  0  0  0  0  0  0
   -2.8120   -3.6204    0.9710 C   0  0  0  0  0  0  0  0  0  0  0  0
   -2.1863   -3.8116   -0.4238 C   0  0  0  0  0  0  0  0  0  0  0  0
   -2.3853   -2.6142   -1.3132 C   0  0  0  0  0  0  0  0  0  0  0  0
   -1.1446   -1.7055   -1.1963 C   0  0  0  0  0  0  0  0  0  0  0  0
    3.4604    0.6212   -0.0109 O   0  0  0  0  0  0  0  0  0  0  0  0
    1.3633    3.6389    5.9818 H   0  0  0  0  0  0  0  0  0  0  0  0
    0.6739    4.4696    4.5665 H   0  0  0  0  0  0  0  0  0  0  0  0
    0.5704    2.6973    4.6960 H   0  0  0  0  0  0  0  0  0  0  0  0
    3.0388    2.5403    4.5208 H   0  0  0  0  0  0  0  0  0  0  0  0
    3.1424    4.3125    4.3913 H   0  0  0  0  0  0  0  0  0  0  0  0
    4.7766    3.2559    3.6052 H   0  0  0  0  0  0  0  0  0  0  0  0
    6.7544    3.0447    2.1556 H   0  0  0  0  0  0  0  0  0  0  0  0
    6.4824    2.8919   -0.2861 H   0  0  0  0  0  0  0  0  0  0  0  0
    4.2332    2.9500   -1.2834 H   0  0  0  0  0  0  0  0  0  0  0  0
   -1.2623    5.3208    0.3825 H   0  0  0  0  0  0  0  0  0  0  0  0
   -0.4564    4.6971   -1.0653 H   0  0  0  0  0  0  0  0  0  0  0  0
   -3.4136    2.6978    0.1740 H   0  0  0  0  0  0  0  0  0  0  0  0
   -2.0718   -0.2611   -0.0182 H   0  0  0  0  0  0  0  0  0  0  0  0
   -0.5004   -2.5669    1.1808 H   0  0  0  0  0  0  0  0  0  0  0  0
   -0.8484   -1.0991    2.1321 H   0  0  0  0  0  0  0  0  0  0  0  0
   -3.2783   -1.5185    1.0854 H   0  0  0  0  0  0  0  0  0  0  0  0
   -2.7508   -2.2329    2.6201 H   0  0  0  0  0  0  0  0  0  0  0  0
   -3.8858   -3.7941    0.9014 H   0  0  0  0  0  0  0  0  0  0  0  0
   -2.3814   -4.3536    1.6530 H   0  0  0  0  0  0  0  0  0  0  0  0
   -2.6400   -4.6821   -0.8976 H   0  0  0  0  0  0  0  0  0  0  0  0
   -1.1174   -3.9920   -0.3092 H   0  0  0  0  0  0  0  0  0  0  0  0
   -3.2721   -2.0657   -0.9957 H   0  0  0  0  0  0  0  0  0  0  0  0
   -2.5058   -2.9383   -2.3469 H   0  0  0  0  0  0  0  0  0  0  0  0
   -1.0976   -1.0579   -2.0718 H   0  0  0  0  0  0  0  0  0  0  0  0
   -0.2519   -2.3306   -1.1719 H   0  0  0  0  0  0  0  0  0  0  0  0
    3.8504    0.6194   -0.8958 H   0  0  0  0  0  0  0  0  0  0  0  0
  1  2  1  0  0  0  0
  1 30  1  0  0  0  0
  1 31  1  0  0  0  0
  1 32  1  0  0  0  0
  2  3  1  0  0  0  0
  2 33  1  0  0  0  0
  2 34  1  0  0  0  0
  3  4  1  0  0  0  0
  4  9  2  0  0  0  0
  4  5  1  0  0  0  0
  5  6  2  0  0  0  0
  5 35  1  0  0  0  0
  6  7  1  0  0  0  0
  6 36  1  0  0  0  0
  7  8  2  0  0  0  0
  7 37  1  0  0  0  0
  8  9  1  0  0  0  0
  8 38  1  0  0  0  0
  9 10  1  0  0  0  0
 10 11  1  0  0  0  0
 10 20  1  0  0  0  0
 10 12  1  0  0  0  0
 12 16  2  0  0  0  0
 12 13  1  0  0  0  0
 13 14  2  0  0  0  0
 13 29  1  0  0  0  0
 14 15  1  0  0  0  0
 15 16  1  0  0  0  0
 15 22  1  0  0  0  0
 16 17  1  0  0  0  0
 17 18  2  0  0  0  0
 18 19  1  0  0  0  0
 18 21  1  0  0  0  0
 19 20  1  0  0  0  0
 19 39  1  0  0  0  0
 19 40  1  0  0  0  0
 21 41  1  0  0  0  0
 22 28  1  0  0  0  0
 22 23  1  0  0  0  0
 22 42  1  0  0  0  0
 23 24  1  0  0  0  0
 23 43  1  0  0  0  0
 23 44  1  0  0  0  0
 24 25  1  0  0  0  0
 24 45  1  0  0  0  0
 24 46  1  0  0  0  0
 25 26  1  0  0  0  0
 25 47  1  0  0  0  0
 25 48  1  0  0  0  0
 26 27  1  0  0  0  0
 26 49  1  0  0  0  0
 26 50  1  0  0  0  0
 27 28  1  0  0  0  0
 27 51  1  0  0  0  0
 27 52  1  0  0  0  0
 28 53  1  0  0  0  0
 28 54  1  0  0  0  0
 29 55  1  0  0  0  0
M  END
$$$$
ZINC01476632
  -OEChem-08230709463D

 53 55  0     0  0  0  0  0  0999 V2000
    2.4133    5.1243   -0.1354 C   0  0  0  0  0  0  0  0  0  0  0  0
    2.4634    3.7936   -0.8888 C   0  0  0  0  0  0  0  0  0  0  0  0
    3.6170    2.9454   -0.3496 C   0  0  0  0  0  0  0  0  0  0  0  0
    2.6795    4.0596   -2.3799 C   0  0  0  0  0  0  0  0  0  0  0  0
    1.1637    3.0563   -0.6932 C   0  0  0  0  0  0  0  0  0  0  0  0
   -0.0240    3.6326   -1.1075 C   0  0  0  0  0  0  0  0  0  0  0  0
   -1.2173    2.9631   -0.9314 C   0  0  0  0  0  0  0  0  0  0  0  0
   -1.2252    1.7038   -0.3291 C   0  0  0  0  0  0  0  0  0  0  0  0
   -0.0229    1.1263    0.0826 C   0  0  0  0  0  0  0  0  0  0  0  0
    1.1635    1.8064   -0.0998 C   0  0  0  0  0  0  0  0  0  0  0  0
   -2.5006    0.9834   -0.1318 C   0  0  0  0  0  0  0  0  0  0  0  0
   -2.6434   -0.2997    0.1080 N   0  0  0  0  0  0  0  0  0  0  0  0
   -3.8898   -0.5890    0.2257 N   0  0  0  0  0  0  0  0  0  0  0  0
   -4.6219    0.4915    0.0685 C   0  0  0  0  0  0  0  0  0  0  0  0
   -3.7638    1.5321   -0.1587 N   0  0  0  0  0  0  0  0  0  0  0  0
   -4.1001    2.8769   -0.3767 C   0  0  0  0  0  0  0  0  0  0  0  0
   -3.7747    3.8365    0.5721 C   0  0  0  0  0  0  0  0  0  0  0  0
   -4.1012    5.1605    0.3547 C   0  0  0  0  0  0  0  0  0  0  0  0
   -4.7641    5.5300   -0.8066 C   0  0  0  0  0  0  0  0  0  0  0  0
   -5.0946    4.5705   -1.7525 C   0  0  0  0  0  0  0  0  0  0  0  0
   -4.7634    3.2471   -1.5386 C   0  0  0  0  0  0  0  0  0  0  0  0
   -5.0903    6.8328   -1.0176 O   0  0  0  0  0  0  0  0  0  0  0  0
   -4.7195    7.7672   -0.0020 C   0  0  0  0  0  0  0  0  0  0  0  0
   -6.3799    0.5834    0.1436 S   0  0  0  0  0  0  0  0  0  0  0  0
   -6.7712   -1.1518    0.4786 C   0  0  0  0  0  0  0  0  0  0  0  0
   -8.2879   -1.3205    0.5883 C   0  0  0  0  0  0  0  0  0  0  0  0
   -8.6137   -2.7652    0.8672 C   0  0  0  0  0  0  0  0  0  0  0  0
   -7.7241   -3.5766    0.9679 O   0  0  0  0  0  0  0  0  0  0  0  0
    2.2593    4.9348    0.9269 H   0  0  0  0  0  0  0  0  0  0  0  0
    3.3534    5.6576   -0.2768 H   0  0  0  0  0  0  0  0  0  0  0  0
    1.5915    5.7286   -0.5195 H   0  0  0  0  0  0  0  0  0  0  0  0
    3.6528    1.9974   -0.8863 H   0  0  0  0  0  0  0  0  0  0  0  0
    4.5571    3.4787   -0.4910 H   0  0  0  0  0  0  0  0  0  0  0  0
    3.4631    2.7559    0.7127 H   0  0  0  0  0  0  0  0  0  0  0  0
    1.8577    4.6638   -2.7640 H   0  0  0  0  0  0  0  0  0  0  0  0
    3.6196    4.5928   -2.5213 H   0  0  0  0  0  0  0  0  0  0  0  0
    2.7153    3.1116   -2.9166 H   0  0  0  0  0  0  0  0  0  0  0  0
   -0.0169    4.6085   -1.5700 H   0  0  0  0  0  0  0  0  0  0  0  0
   -2.1438    3.4141   -1.2549 H   0  0  0  0  0  0  0  0  0  0  0  0
   -0.0218    0.1509    0.5462 H   0  0  0  0  0  0  0  0  0  0  0  0
    2.0940    1.3624    0.2216 H   0  0  0  0  0  0  0  0  0  0  0  0
   -3.2626    3.5483    1.4782 H   0  0  0  0  0  0  0  0  0  0  0  0
   -3.8444    5.9078    1.0909 H   0  0  0  0  0  0  0  0  0  0  0  0
   -5.6106    4.8586   -2.6564 H   0  0  0  0  0  0  0  0  0  0  0  0
   -5.0207    2.5002   -2.2750 H   0  0  0  0  0  0  0  0  0  0  0  0
   -3.6372    7.7534    0.1267 H   0  0  0  0  0  0  0  0  0  0  0  0
   -5.0378    8.7676   -0.2949 H   0  0  0  0  0  0  0  0  0  0  0  0
   -5.2005    7.4932    0.9370 H   0  0  0  0  0  0  0  0  0  0  0  0
   -6.3944   -1.7727   -0.3342 H   0  0  0  0  0  0  0  0  0  0  0  0
   -6.3031   -1.4556    1.4149 H   0  0  0  0  0  0  0  0  0  0  0  0
   -8.6647   -0.6996    1.4011 H   0  0  0  0  0  0  0  0  0  0  0  0
   -8.7560   -1.0167   -0.3480 H   0  0  0  0  0  0  0  0  0  0  0  0
   -9.8922   -3.1506    1.0038 O   0  5  0  0  0  0  0  0  0  0  0  0
  1  2  1  0  0  0  0
  1 29  1  0  0  0  0
  1 30  1  0  0  0  0
  1 31  1  0  0  0  0
  2  3  1  0  0  0  0
  2  4  1  0  0  0  0
  2  5  1  0  0  0  0
  3 32  1  0  0  0  0
  3 33  1  0  0  0  0
  3 34  1  0  0  0  0
  4 35  1  0  0  0  0
  4 36  1  0  0  0  0
  4 37  1  0  0  0  0
  5 10  2  0  0  0  0
  5  6  1  0  0  0  0
  6  7  2  0  0  0  0
  6 38  1  0  0  0  0
  7  8  1  0  0  0  0
  7 39  1  0  0  0  0
  8  9  2  0  0  0  0
  8 11  1  0  0  0  0
  9 10  1  0  0  0  0
  9 40  1  0  0  0  0
 10 41  1  0  0  0  0
 11 15  1  0  0  0  0
 11 12  2  0  0  0  0
 12 13  1  0  0  0  0
 13 14  2  0  0  0  0
 14 15  1  0  0  0  0
 14 24  1  0  0  0  0
 15 16  1  0  0  0  0
 16 21  2  0  0  0  0
 16 17  1  0  0  0  0
 17 18  2  0  0  0  0
 17 42  1  0  0  0  0
 18 19  1  0  0  0  0
 18 43  1  0  0  0  0
 19 20  2  0  0  0  0
 19 22  1  0  0  0  0
 20 21  1  0  0  0  0
 20 44  1  0  0  0  0
 21 45  1  0  0  0  0
 22 23  1  0  0  0  0
 23 46  1  0  0  0  0
 23 47  1  0  0  0  0
 23 48  1  0  0  0  0
 24 25  1  0  0  0  0
 25 26  1  0  0  0  0
 25 49  1  0  0  0  0
 25 50  1  0  0  0  0
 26 27  1  0  0  0  0
 26 51  1  0  0  0  0
 26 52  1  0  0  0  0
 27 28  2  0  0  0  0
 27 53  1  0  0  0  0
M  CHG  1  53  -1
M  END
$$$$
ZINC01485788
  -OEChem-08230709463D

 50 54  0     1  0  0  0  0  0999 V2000
    6.8266    4.3610    5.5485 C   0  0  0  0  0  0  0  0  0  0  0  0
    5.5402    4.3748    6.3768 C   0  0  2  0  0  0  0  0  0  0  0  0
    5.2631    5.4050    6.6003 H   0  0  0  0  0  0  0  0  0  0  0  0
    5.7671    3.6126    7.6839 C   0  0  1  0  0  0  0  0  0  0  0  0
    6.6789    3.9152    8.1988 H   0  0  0  0  0  0  0  0  0  0  0  0
    4.5320    3.5664    8.5930 C   0  0  1  0  0  0  0  0  0  0  0  0
    4.6953    3.8630    9.6291 H   0  0  0  0  0  0  0  0  0  0  0  0
    3.2549    4.1335    7.9540 C   0  0  0  0  0  0  0  0  0  0  0  0
    2.5205    2.9182    7.4357 C   0  0  0  0  0  0  0  0  0  0  0  0
    3.2643    1.8237    7.6859 C   0  0  0  0  0  0  0  0  0  0  0  0
    4.4792    2.1184    8.3063 N   0  0  0  0  0  0  0  0  0  0  0  0
    5.6128    2.1116    7.5505 C   0  0  0  0  0  0  0  0  0  0  0  0
    6.2489    1.2438    6.9904 O   0  0  0  0  0  0  0  0  0  0  0  0
    2.8423    0.4625    7.3391 C   0  0  0  0  0  0  0  0  0  0  0  0
    3.5647   -0.4818    7.5949 O   0  0  0  0  0  0  0  0  0  0  0  0
    1.2084    2.9286    6.7737 C   0  0  0  0  0  0  0  0  0  0  0  0
    0.0658    3.3255    7.4842 C   0  0  0  0  0  0  0  0  0  0  0  0
   -1.1559    3.3390    6.8788 C   0  0  0  0  0  0  0  0  0  0  0  0
   -1.2867    2.9576    5.5440 C   0  0  0  0  0  0  0  0  0  0  0  0
   -0.1490    2.5579    4.8217 C   0  0  0  0  0  0  0  0  0  0  0  0
    1.0965    2.5438    5.4363 C   0  0  0  0  0  0  0  0  0  0  0  0
   -0.6148    2.2233    3.4642 C   0  0  0  0  0  0  0  0  0  0  0  0
    0.0071    1.7746    2.3057 C   0  0  0  0  0  0  0  0  0  0  0  0
   -0.6984    1.5583    1.2133 N   0  3  0  0  0  0  0  0  0  0  0  0
   -2.0042    1.7593    1.1695 C   0  0  0  0  0  0  0  0  0  0  0  0
   -2.7000    2.1988    2.2745 C   0  0  0  0  0  0  0  0  0  0  0  0
   -2.0039    2.4435    3.4576 C   0  0  0  0  0  0  0  0  0  0  0  0
   -2.3835    2.8806    4.7064 N   0  0  0  0  0  0  0  0  0  0  0  0
   -3.7559    3.2174    5.0929 C   0  0  0  0  0  0  0  0  0  0  0  0
   -0.0127    1.0858    0.0080 C   0  0  0  0  0  0  0  0  0  0  0  0
    4.4903    3.7490    5.6365 O   0  0  0  0  0  0  0  0  0  0  0  0
    7.6275    4.8383    6.1132 H   0  0  0  0  0  0  0  0  0  0  0  0
    7.1037    3.3308    5.3250 H   0  0  0  0  0  0  0  0  0  0  0  0
    6.6650    4.9040    4.6173 H   0  0  0  0  0  0  0  0  0  0  0  0
    3.5060    4.8052    7.1331 H   0  0  0  0  0  0  0  0  0  0  0  0
    2.6526    4.6531    8.6991 H   0  0  0  0  0  0  0  0  0  0  0  0
    0.1545    3.6231    8.5185 H   0  0  0  0  0  0  0  0  0  0  0  0
   -2.0278    3.6467    7.4368 H   0  0  0  0  0  0  0  0  0  0  0  0
    1.9722    2.2372    4.8836 H   0  0  0  0  0  0  0  0  0  0  0  0
    1.0733    1.6026    2.2999 H   0  0  0  0  0  0  0  0  0  0  0  0
   -2.5374    1.5718    0.2492 H   0  0  0  0  0  0  0  0  0  0  0  0
   -3.7676    2.3544    2.2241 H   0  0  0  0  0  0  0  0  0  0  0  0
   -3.9403    4.2734    4.8952 H   0  0  0  0  0  0  0  0  0  0  0  0
   -4.4548    2.6122    4.5157 H   0  0  0  0  0  0  0  0  0  0  0  0
   -3.8936    3.0173    6.1555 H   0  0  0  0  0  0  0  0  0  0  0  0
    0.0021   -0.0041    0.0020 H   0  0  0  0  0  0  0  0  0  0  0  0
    1.0099    1.4631    0.0003 H   0  0  0  0  0  0  0  0  0  0  0  0
   -0.5399    1.4469   -0.8751 H   0  0  0  0  0  0  0  0  0  0  0  0
    4.2919    4.1803    4.7941 H   0  0  0  0  0  0  0  0  0  0  0  0
    1.6529    0.2580    6.7365 O   0  5  0  0  0  0  0  0  0  0  0  0
  1  2  1  0  0  0  0
  1 32  1  0  0  0  0
  1 33  1  0  0  0  0
  1 34  1  0  0  0  0
  2  3  1  0  0  0  0
  2  4  1  0  0  0  0
  2 31  1  0  0  0  0
  4  5  1  0  0  0  0
  4 12  1  0  0  0  0
  4  6  1  0  0  0  0
  6  7  1  0  0  0  0
  6 11  1  0  0  0  0
  6  8  1  0  0  0  0
  8  9  1  0  0  0  0
  8 35  1  0  0  0  0
  8 36  1  0  0  0  0
  9 10  2  0  0  0  0
  9 16  1  0  0  0  0
 10 11  1  0  0  0  0
 10 14  1  0  0  0  0
 11 12  1  0  0  0  0
 12 13  2  0  0  0  0
 14 15  2  0  0  0  0
 14 50  1  0  0  0  0
 16 21  2  0  0  0  0
 16 17  1  0  0  0  0
 17 18  2  0  0  0  0
 17 37  1  0  0  0  0
 18 19  1  0  0  0  0
 18 38  1  0  0  0  0
 19 28  1  0  0  0  0
 19 20  2  0  0  0  0
 20 21  1  0  0  0  0
 20 22  1  0  0  0  0
 21 39  1  0  0  0  0
 22 27  2  0  0  0  0
 22 23  1  0  0  0  0
 23 24  2  0  0  0  0
 23 40  1  0  0  0  0
 24 25  1  0  0  0  0
 24 30  1  0  0  0  0
 25 26  2  0  0  0  0
 25 41  1  0  0  0  0
 26 27  1  0  0  0  0
 26 42  1  0  0  0  0
 27 28  1  0  0  0  0
 28 29  1  0  0  0  0
 29 43  1  0  0  0  0
 29 44  1  0  0  0  0
 29 45  1  0  0  0  0
 30 46  1  0  0  0  0
 30 47  1  0  0  0  0
 30 48  1  0  0  0  0
 31 49  1  0  0  0  0
M  CHG  2  24   1  50  -1
M  END
$$$$
ZINC01491332
  -OEChem-08230709463D

 55 56  0     1  0  0  0  0  0999 V2000
    4.4814    4.1551   -1.4892 C   0  0  0  0  0  0  0  0  0  0  0  0
    3.0198    3.7030   -1.4726 C   0  0  0  0  0  0  0  0  0  0  0  0
    2.5934    3.5189   -0.1212 O   0  0  0  0  0  0  0  0  0  0  0  0
    1.2350    3.0943    0.0069 C   0  0  2  0  0  0  0  0  0  0  0  0
    0.6521    3.4847   -0.8273 H   0  0  0  0  0  0  0  0  0  0  0  0
    0.6581    3.6205    1.3226 C   0  0  0  0  0  0  0  0  0  0  0  0
    0.6021    5.1489    1.2799 C   0  0  0  0  0  0  0  0  0  0  0  0
    0.0339    5.6672    2.5759 C   0  0  0  0  0  0  0  0  0  0  0  0
    0.8772    5.9581    3.6326 C   0  0  0  0  0  0  0  0  0  0  0  0
    0.3591    6.4346    4.8224 C   0  0  0  0  0  0  0  0  0  0  0  0
   -1.0031    6.6212    4.9586 C   0  0  0  0  0  0  0  0  0  0  0  0
   -1.8511    6.3297    3.9003 C   0  0  0  0  0  0  0  0  0  0  0  0
   -1.3281    5.8566    2.7053 C   0  0  0  0  0  0  0  0  0  0  0  0
   -3.1913    6.5120    4.0319 O   0  0  0  0  0  0  0  0  0  0  0  0
   -3.6584    7.0071    5.2884 C   0  0  0  0  0  0  0  0  0  0  0  0
   -5.1815    7.1464    5.2473 C   0  0  0  0  0  0  0  0  0  0  0  0
   -5.6741    7.6685    6.5724 C   0  0  0  0  0  0  0  0  0  0  0  0
   -5.8305    8.9600    6.9070 C   0  0  0  0  0  0  0  0  0  0  0  0
   -6.2885    8.9888    8.1739 O   0  0  0  0  0  0  0  0  0  0  0  0
   -6.4055    7.7224    8.5949 C   0  0  0  0  0  0  0  0  0  0  0  0
   -6.0419    6.9252    7.6311 N   0  0  0  0  0  0  0  0  0  0  0  0
   -6.8855    7.2910    9.9568 C   0  0  0  0  0  0  0  0  0  0  0  0
   -5.9601    7.8679   11.0300 C   0  0  0  0  0  0  0  0  0  0  0  0
   -8.3093    7.8038   10.1817 C   0  0  0  0  0  0  0  0  0  0  0  0
   -5.5474   10.1525    6.0301 C   0  0  0  0  0  0  0  0  0  0  0  0
    1.1765    1.5884   -0.0006 C   0  0  0  0  0  0  0  0  0  0  0  0
    2.1986    0.9442   -0.0139 O   0  0  0  0  0  0  0  0  0  0  0  0
    4.8067    4.2956   -2.5200 H   0  0  0  0  0  0  0  0  0  0  0  0
    4.5769    5.0957   -0.9467 H   0  0  0  0  0  0  0  0  0  0  0  0
    5.1019    3.3962   -1.0126 H   0  0  0  0  0  0  0  0  0  0  0  0
    2.9243    2.7624   -2.0151 H   0  0  0  0  0  0  0  0  0  0  0  0
    2.3993    4.4619   -1.9492 H   0  0  0  0  0  0  0  0  0  0  0  0
   -0.3474    3.2239    1.4629 H   0  0  0  0  0  0  0  0  0  0  0  0
    1.2925    3.3031    2.1502 H   0  0  0  0  0  0  0  0  0  0  0  0
    1.6077    5.5455    1.1397 H   0  0  0  0  0  0  0  0  0  0  0  0
   -0.0323    5.4662    0.4523 H   0  0  0  0  0  0  0  0  0  0  0  0
    1.9423    5.8132    3.5280 H   0  0  0  0  0  0  0  0  0  0  0  0
    1.0198    6.6614    5.6461 H   0  0  0  0  0  0  0  0  0  0  0  0
   -1.4072    6.9942    5.8881 H   0  0  0  0  0  0  0  0  0  0  0  0
   -1.9858    5.6334    1.8783 H   0  0  0  0  0  0  0  0  0  0  0  0
   -3.3784    6.3118    6.0797 H   0  0  0  0  0  0  0  0  0  0  0  0
   -3.2097    7.9809    5.4848 H   0  0  0  0  0  0  0  0  0  0  0  0
   -5.4616    7.8417    4.4560 H   0  0  0  0  0  0  0  0  0  0  0  0
   -5.6303    6.1726    5.0510 H   0  0  0  0  0  0  0  0  0  0  0  0
   -6.8775    6.2027   10.0169 H   0  0  0  0  0  0  0  0  0  0  0  0
   -5.9681    8.9562   10.9699 H   0  0  0  0  0  0  0  0  0  0  0  0
   -6.3073    7.5559   12.0150 H   0  0  0  0  0  0  0  0  0  0  0  0
   -4.9457    7.5025   10.8697 H   0  0  0  0  0  0  0  0  0  0  0  0
   -8.6565    7.4918   11.1667 H   0  0  0  0  0  0  0  0  0  0  0  0
   -8.3173    8.8921   10.1216 H   0  0  0  0  0  0  0  0  0  0  0  0
   -8.9685    7.3928    9.4171 H   0  0  0  0  0  0  0  0  0  0  0  0
   -6.4456   10.4132    5.4703 H   0  0  0  0  0  0  0  0  0  0  0  0
   -5.2482   10.9970    6.6508 H   0  0  0  0  0  0  0  0  0  0  0  0
   -4.7437    9.9097    5.3349 H   0  0  0  0  0  0  0  0  0  0  0  0
   -0.0110    0.9628    0.0073 O   0  5  0  0  0  0  0  0  0  0  0  0
  1  2  1  0  0  0  0
  1 28  1  0  0  0  0
  1 29  1  0  0  0  0
  1 30  1  0  0  0  0
  2  3  1  0  0  0  0
  2 31  1  0  0  0  0
  2 32  1  0  0  0  0
  3  4  1  0  0  0  0
  4  5  1  0  0  0  0
  4  6  1  0  0  0  0
  4 26  1  0  0  0  0
  6  7  1  0  0  0  0
  6 33  1  0  0  0  0
  6 34  1  0  0  0  0
  7  8  1  0  0  0  0
  7 35  1  0  0  0  0
  7 36  1  0  0  0  0
  8 13  2  0  0  0  0
  8  9  1  0  0  0  0
  9 10  2  0  0  0  0
  9 37  1  0  0  0  0
 10 11  1  0  0  0  0
 10 38  1  0  0  0  0
 11 12  2  0  0  0  0
 11 39  1  0  0  0  0
 12 13  1  0  0  0  0
 12 14  1  0  0  0  0
 13 40  1  0  0  0  0
 14 15  1  0  0  0  0
 15 16  1  0  0  0  0
 15 41  1  0  0  0  0
 15 42  1  0  0  0  0
 16 17  1  0  0  0  0
 16 43  1  0  0  0  0
 16 44  1  0  0  0  0
 17 21  1  0  0  0  0
 17 18  2  0  0  0  0
 18 19  1  0  0  0  0
 18 25  1  0  0  0  0
 19 20  1  0  0  0  0
 20 21  2  0  0  0  0
 20 22  1  0  0  0  0
 22 23  1  0  0  0  0
 22 24  1  0  0  0  0
 22 45  1  0  0  0  0
 23 46  1  0  0  0  0
 23 47  1  0  0  0  0
 23 48  1  0  0  0  0
 24 49  1  0  0  0  0
 24 50  1  0  0  0  0
 24 51  1  0  0  0  0
 25 52  1  0  0  0  0
 25 53  1  0  0  0  0
 25 54  1  0  0  0  0
 26 27  2  0  0  0  0
 26 55  1  0  0  0  0
M  CHG  1  55  -1
M  END
$$$$
ZINC01492289
  -OEChem-08230709463D

 52 54  0     1  0  0  0  0  0999 V2000
   -0.0127    1.0858    0.0080 C   0  0  0  0  0  0  0  0  0  0  0  0
   -0.7288    1.5792    1.2668 C   0  0  0  0  0  0  0  0  0  0  0  0
   -0.0377    1.1059    2.4245 O   0  0  0  0  0  0  0  0  0  0  0  0
   -0.6279    1.5128    3.6607 C   0  0  1  0  0  0  0  0  0  0  0  0
   -1.7038    1.6282    3.5290 H   0  0  0  0  0  0  0  0  0  0  0  0
   -0.3558    0.4521    4.7293 C   0  0  0  0  0  0  0  0  0  0  0  0
   -1.0564   -0.8288    4.3555 C   0  0  0  0  0  0  0  0  0  0  0  0
   -2.3480   -1.0613    4.7907 C   0  0  0  0  0  0  0  0  0  0  0  0
   -2.9944   -2.2322    4.4447 C   0  0  0  0  0  0  0  0  0  0  0  0
   -2.3424   -3.1801    3.6695 C   0  0  0  0  0  0  0  0  0  0  0  0
   -1.0444   -2.9468    3.2388 C   0  0  0  0  0  0  0  0  0  0  0  0
   -0.4044   -1.7719    3.5828 C   0  0  0  0  0  0  0  0  0  0  0  0
   -2.9743   -4.3349    3.3321 O   0  0  0  0  0  0  0  0  0  0  0  0
   -4.3097   -4.5075    3.8105 C   0  0  0  0  0  0  0  0  0  0  0  0
   -4.8522   -5.8561    3.3333 C   0  0  0  0  0  0  0  0  0  0  0  0
   -6.2213   -6.0329    3.8238 N   0  0  0  0  0  0  0  0  0  0  0  0
   -7.3548   -5.6471    3.1717 C   0  0  0  0  0  0  0  0  0  0  0  0
   -8.4147   -5.9779    3.9369 C   0  0  0  0  0  0  0  0  0  0  0  0
   -7.9174   -6.5904    5.1042 C   0  0  0  0  0  0  0  0  0  0  0  0
   -6.5727   -6.6159    5.0051 C   0  0  0  0  0  0  0  0  0  0  0  0
   -5.6223   -7.1864    6.0260 C   0  0  0  0  0  0  0  0  0  0  0  0
   -6.0877   -8.4095    6.8186 C   0  0  0  0  0  0  0  0  0  0  0  0
   -6.0009   -7.0431    7.5015 C   0  0  0  0  0  0  0  0  0  0  0  0
   -7.4131   -4.9677    1.8278 C   0  0  0  0  0  0  0  0  0  0  0  0
   -0.0309    2.8269    4.0938 C   0  0  0  0  0  0  0  0  0  0  0  0
    0.8133    3.3603    3.4137 O   0  0  0  0  0  0  0  0  0  0  0  0
    0.0021   -0.0041    0.0020 H   0  0  0  0  0  0  0  0  0  0  0  0
    1.0099    1.4631    0.0003 H   0  0  0  0  0  0  0  0  0  0  0  0
   -0.5399    1.4469   -0.8751 H   0  0  0  0  0  0  0  0  0  0  0  0
   -0.7436    2.6691    1.2728 H   0  0  0  0  0  0  0  0  0  0  0  0
   -1.7514    1.2020    1.2746 H   0  0  0  0  0  0  0  0  0  0  0  0
    0.7171    0.2727    4.7982 H   0  0  0  0  0  0  0  0  0  0  0  0
   -0.7282    0.8024    5.6920 H   0  0  0  0  0  0  0  0  0  0  0  0
   -2.8536   -0.3250    5.3979 H   0  0  0  0  0  0  0  0  0  0  0  0
   -4.0049   -2.4114    4.7812 H   0  0  0  0  0  0  0  0  0  0  0  0
   -0.5348   -3.6831    2.6349 H   0  0  0  0  0  0  0  0  0  0  0  0
    0.6060   -1.5897    3.2475 H   0  0  0  0  0  0  0  0  0  0  0  0
   -4.3116   -4.4801    4.9002 H   0  0  0  0  0  0  0  0  0  0  0  0
   -4.9399   -3.7056    3.4259 H   0  0  0  0  0  0  0  0  0  0  0  0
   -4.8503   -5.8834    2.2436 H   0  0  0  0  0  0  0  0  0  0  0  0
   -4.2220   -6.6579    3.7179 H   0  0  0  0  0  0  0  0  0  0  0  0
   -9.4538   -5.8051    3.6988 H   0  0  0  0  0  0  0  0  0  0  0  0
   -8.5052   -6.9734    5.9253 H   0  0  0  0  0  0  0  0  0  0  0  0
   -4.5646   -7.1250    5.7696 H   0  0  0  0  0  0  0  0  0  0  0  0
   -7.0814   -8.8015    6.6017 H   0  0  0  0  0  0  0  0  0  0  0  0
   -5.3362   -9.1532    7.0837 H   0  0  0  0  0  0  0  0  0  0  0  0
   -5.1924   -6.8879    8.2158 H   0  0  0  0  0  0  0  0  0  0  0  0
   -6.9375   -6.5362    7.7338 H   0  0  0  0  0  0  0  0  0  0  0  0
   -7.4737   -5.7209    1.0422 H   0  0  0  0  0  0  0  0  0  0  0  0
   -8.2922   -4.3249    1.7835 H   0  0  0  0  0  0  0  0  0  0  0  0
   -6.5154   -4.3659    1.6857 H   0  0  0  0  0  0  0  0  0  0  0  0
   -0.4371    3.4049    5.2352 O   0  5  0  0  0  0  0  0  0  0  0  0
  1  2  1  0  0  0  0
  1 27  1  0  0  0  0
  1 28  1  0  0  0  0
  1 29  1  0  0  0  0
  2  3  1  0  0  0  0
  2 30  1  0  0  0  0
  2 31  1  0  0  0  0
  3  4  1  0  0  0  0
  4  5  1  0  0  0  0
  4  6  1  0  0  0  0
  4 25  1  0  0  0  0
  6  7  1  0  0  0  0
  6 32  1  0  0  0  0
  6 33  1  0  0  0  0
  7 12  2  0  0  0  0
  7  8  1  0  0  0  0
  8  9  2  0  0  0  0
  8 34  1  0  0  0  0
  9 10  1  0  0  0  0
  9 35  1  0  0  0  0
 10 11  2  0  0  0  0
 10 13  1  0  0  0  0
 11 12  1  0  0  0  0
 11 36  1  0  0  0  0
 12 37  1  0  0  0  0
 13 14  1  0  0  0  0
 14 15  1  0  0  0  0
 14 38  1  0  0  0  0
 14 39  1  0  0  0  0
 15 16  1  0  0  0  0
 15 40  1  0  0  0  0
 15 41  1  0  0  0  0
 16 20  1  0  0  0  0
 16 17  1  0  0  0  0
 17 18  2  0  0  0  0
 17 24  1  0  0  0  0
 18 19  1  0  0  0  0
 18 42  1  0  0  0  0
 19 20  2  0  0  0  0
 19 43  1  0  0  0  0
 20 21  1  0  0  0  0
 21 23  1  0  0  0  0
 21 22  1  0  0  0  0
 21 44  1  0  0  0  0
 22 23  1  0  0  0  0
 22 45  1  0  0  0  0
 22 46  1  0  0  0  0
 23 47  1  0  0  0  0
 23 48  1  0  0  0  0
 24 49  1  0  0  0  0
 24 50  1  0  0  0  0
 24 51  1  0  0  0  0
 25 26  2  0  0  0  0
 25 52  1  0  0  0  0
M  CHG  1  52  -1
M  END
$$$$
ZINC01534210
  -OEChem-08230709463D

 59 62  0     0  0  0  0  0  0999 V2000
   -4.1736    0.7255   -2.7775 C   0  0  0  0  0  0  0  0  0  0  0  0
   -4.4914    1.2096   -1.3613 C   0  0  0  0  0  0  0  0  0  0  0  0
   -3.2712    0.9952   -0.4633 C   0  0  0  0  0  0  0  0  0  0  0  0
   -3.5889    1.4793    0.9529 C   0  0  0  0  0  0  0  0  0  0  0  0
   -2.3872    1.2682    1.8373 C   0  0  0  0  0  0  0  0  0  0  0  0
   -2.2782    0.1538    2.5932 C   0  0  0  0  0  0  0  0  0  0  0  0
   -1.2004   -0.0339    3.3881 N   0  0  0  0  0  0  0  0  0  0  0  0
   -0.1891    0.8787    3.4696 C   0  0  0  0  0  0  0  0  0  0  0  0
   -0.2367    2.0032    2.7339 C   0  0  0  0  0  0  0  0  0  0  0  0
   -1.3536    2.2293    1.8853 C   0  0  0  0  0  0  0  0  0  0  0  0
   -1.4215    3.2455    1.2091 O   0  0  0  0  0  0  0  0  0  0  0  0
    0.8510    3.0436    2.7494 C   0  0  0  0  0  0  0  0  0  0  0  0
    1.7325    2.8842    3.9865 C   0  0  0  0  0  0  0  0  0  0  0  0
    2.1717    1.4175    4.0765 C   0  0  0  0  0  0  0  0  0  0  0  0
    0.9467    0.5698    4.4112 C   0  0  0  0  0  0  0  0  0  0  0  0
   -1.1159   -1.2578    4.1889 C   0  0  0  0  0  0  0  0  0  0  0  0
   -1.7643   -1.0267    5.5295 C   0  0  0  0  0  0  0  0  0  0  0  0
   -0.9878   -0.6738    6.6187 C   0  0  0  0  0  0  0  0  0  0  0  0
   -1.5765   -0.4554    7.8475 C   0  0  0  0  0  0  0  0  0  0  0  0
   -2.9556   -0.6021    7.9926 C   0  0  0  0  0  0  0  0  0  0  0  0
   -3.7323   -0.9634    6.8924 C   0  0  0  0  0  0  0  0  0  0  0  0
   -3.1329   -1.1737    5.6674 C   0  0  0  0  0  0  0  0  0  0  0  0
   -3.5932   -0.3743    9.3107 C   0  0  0  0  0  0  0  0  0  0  0  0
   -3.4263    0.8409    9.9687 C   0  0  0  0  0  0  0  0  0  0  0  0
   -4.0216    1.0489   11.1966 C   0  0  0  0  0  0  0  0  0  0  0  0
   -4.7879    0.0547   11.7825 C   0  0  0  0  0  0  0  0  0  0  0  0
   -4.9656   -1.1560   11.1464 C   0  0  0  0  0  0  0  0  0  0  0  0
   -4.3755   -1.3829    9.9020 C   0  0  0  0  0  0  0  0  0  0  0  0
   -4.5668   -2.6734    9.2140 C   0  0  0  0  0  0  0  0  0  0  0  0
   -3.9570   -2.9125    8.1906 O   0  0  0  0  0  0  0  0  0  0  0  0
   -3.9235   -0.3351   -2.7514 H   0  0  0  0  0  0  0  0  0  0  0  0
   -5.0429    0.8782   -3.4172 H   0  0  0  0  0  0  0  0  0  0  0  0
   -3.3282    1.2886   -3.1728 H   0  0  0  0  0  0  0  0  0  0  0  0
   -5.3368    0.6465   -0.9659 H   0  0  0  0  0  0  0  0  0  0  0  0
   -4.7415    2.2702   -1.3873 H   0  0  0  0  0  0  0  0  0  0  0  0
   -3.0211   -0.0654   -0.4372 H   0  0  0  0  0  0  0  0  0  0  0  0
   -2.4258    1.5583   -0.8586 H   0  0  0  0  0  0  0  0  0  0  0  0
   -3.8391    2.5399    0.9268 H   0  0  0  0  0  0  0  0  0  0  0  0
   -4.4344    0.9162    1.3482 H   0  0  0  0  0  0  0  0  0  0  0  0
   -3.0577   -0.5931    2.5622 H   0  0  0  0  0  0  0  0  0  0  0  0
    1.4644    2.9351    1.8550 H   0  0  0  0  0  0  0  0  0  0  0  0
    0.3990    4.0354    2.7566 H   0  0  0  0  0  0  0  0  0  0  0  0
    2.6093    3.5258    3.8984 H   0  0  0  0  0  0  0  0  0  0  0  0
    1.1671    3.1548    4.8783 H   0  0  0  0  0  0  0  0  0  0  0  0
    2.5886    1.0996    3.1208 H   0  0  0  0  0  0  0  0  0  0  0  0
    2.9216    1.3059    4.8596 H   0  0  0  0  0  0  0  0  0  0  0  0
    0.6328    0.7804    5.4335 H   0  0  0  0  0  0  0  0  0  0  0  0
    1.2063   -0.4855    4.3264 H   0  0  0  0  0  0  0  0  0  0  0  0
   -1.6306   -2.0671    3.6711 H   0  0  0  0  0  0  0  0  0  0  0  0
   -0.0693   -1.5262    4.3329 H   0  0  0  0  0  0  0  0  0  0  0  0
    0.0809   -0.5652    6.5061 H   0  0  0  0  0  0  0  0  0  0  0  0
   -0.9698   -0.1756    8.6960 H   0  0  0  0  0  0  0  0  0  0  0  0
   -4.8009   -1.0782    6.9987 H   0  0  0  0  0  0  0  0  0  0  0  0
   -3.7335   -1.4533    4.8144 H   0  0  0  0  0  0  0  0  0  0  0  0
   -2.8307    1.6213    9.5184 H   0  0  0  0  0  0  0  0  0  0  0  0
   -3.8892    1.9932   11.7038 H   0  0  0  0  0  0  0  0  0  0  0  0
   -5.2495    0.2289   12.7433 H   0  0  0  0  0  0  0  0  0  0  0  0
   -5.5640   -1.9268   11.6092 H   0  0  0  0  0  0  0  0  0  0  0  0
   -5.4179   -3.5872    9.7203 O   0  5  0  0  0  0  0  0  0  0  0  0
  1  2  1  0  0  0  0
  1 31  1  0  0  0  0
  1 32  1  0  0  0  0
  1 33  1  0  0  0  0
  2  3  1  0  0  0  0
  2 34  1  0  0  0  0
  2 35  1  0  0  0  0
  3  4  1  0  0  0  0
  3 36  1  0  0  0  0
  3 37  1  0  0  0  0
  4  5  1  0  0  0  0
  4 38  1  0  0  0  0
  4 39  1  0  0  0  0
  5 10  1  0  0  0  0
  5  6  2  0  0  0  0
  6  7  1  0  0  0  0
  6 40  1  0  0  0  0
  7  8  1  0  0  0  0
  7 16  1  0  0  0  0
  8 15  1  0  0  0  0
  8  9  2  0  0  0  0
  9 10  1  0  0  0  0
  9 12  1  0  0  0  0
 10 11  2  0  0  0  0
 12 13  1  0  0  0  0
 12 41  1  0  0  0  0
 12 42  1  0  0  0  0
 13 14  1  0  0  0  0
 13 43  1  0  0  0  0
 13 44  1  0  0  0  0
 14 15  1  0  0  0  0
 14 45  1  0  0  0  0
 14 46  1  0  0  0  0
 15 47  1  0  0  0  0
 15 48  1  0  0  0  0
 16 17  1  0  0  0  0
 16 49  1  0  0  0  0
 16 50  1  0  0  0  0
 17 22  2  0  0  0  0
 17 18  1  0  0  0  0
 18 19  2  0  0  0  0
 18 51  1  0  0  0  0
 19 20  1  0  0  0  0
 19 52  1  0  0  0  0
 20 21  2  0  0  0  0
 20 23  1  0  0  0  0
 21 22  1  0  0  0  0
 21 53  1  0  0  0  0
 22 54  1  0  0  0  0
 23 28  2  0  0  0  0
 23 24  1  0  0  0  0
 24 25  2  0  0  0  0
 24 55  1  0  0  0  0
 25 26  1  0  0  0  0
 25 56  1  0  0  0  0
 26 27  2  0  0  0  0
 26 57  1  0  0  0  0
 27 28  1  0  0  0  0
 27 58  1  0  0  0  0
 28 29  1  0  0  0  0
 29 30  2  0  0  0  0
 29 59  1  0  0  0  0
M  CHG  1  59  -1
M  END
$$$$
ZINC01534279
  -OEChem-08230709463D

 55 57  0     0  0  0  0  0  0999 V2000
  -10.7474    2.7915   -5.8153 C   0  0  0  0  0  0  0  0  0  0  0  0
   -9.3591    3.4258   -5.7096 C   0  0  0  0  0  0  0  0  0  0  0  0
   -8.8604    3.3239   -4.2668 C   0  0  0  0  0  0  0  0  0  0  0  0
   -7.4721    3.9583   -4.1610 C   0  0  0  0  0  0  0  0  0  0  0  0
   -6.9809    3.8579   -2.7399 C   0  0  0  0  0  0  0  0  0  0  0  0
   -7.1832    4.7647   -1.7848 N   0  0  0  0  0  0  0  0  0  0  0  0
   -6.6279    4.3659   -0.6694 C   0  0  0  0  0  0  0  0  0  0  0  0
   -6.0417    3.1777   -0.8967 N   0  0  0  0  0  0  0  0  0  0  0  0
   -6.2866    2.8674   -2.2444 N   0  0  0  0  0  0  0  0  0  0  0  0
   -5.3003    2.3650    0.0707 C   0  0  0  0  0  0  0  0  0  0  0  0
   -6.2216    1.3353    0.6725 C   0  0  0  0  0  0  0  0  0  0  0  0
   -6.4361    0.1356    0.0192 C   0  0  0  0  0  0  0  0  0  0  0  0
   -7.2799   -0.8101    0.5681 C   0  0  0  0  0  0  0  0  0  0  0  0
   -7.9131   -0.5551    1.7773 C   0  0  0  0  0  0  0  0  0  0  0  0
   -7.7001    0.6529    2.4281 C   0  0  0  0  0  0  0  0  0  0  0  0
   -6.8510    1.5924    1.8766 C   0  0  0  0  0  0  0  0  0  0  0  0
   -8.7694   -1.5121    2.3366 N   0  0  0  0  0  0  0  0  0  0  0  0
   -9.7827   -2.1426    1.6904 C   0  0  0  0  0  0  0  0  0  0  0  0
  -10.3869   -2.9973    2.5508 C   0  0  0  0  0  0  0  0  0  0  0  0
   -9.7282   -2.9071    3.7807 C   0  0  0  0  0  0  0  0  0  0  0  0
   -8.7235   -1.9718    3.6359 C   0  0  0  0  0  0  0  0  0  0  0  0
   -7.7778   -1.5495    4.6710 C   0  0  0  0  0  0  0  0  0  0  0  0
   -7.8405   -2.0323    5.7856 O   0  0  0  0  0  0  0  0  0  0  0  0
   -6.6401    5.1104    0.6409 C   0  0  0  0  0  0  0  0  0  0  0  0
   -5.4957    6.1256    0.6613 C   0  0  0  0  0  0  0  0  0  0  0  0
   -5.5817    6.9655    1.9372 C   0  0  0  0  0  0  0  0  0  0  0  0
   -4.4373    7.9807    1.9577 C   0  0  0  0  0  0  0  0  0  0  0  0
  -10.6909    1.7428   -5.5237 H   0  0  0  0  0  0  0  0  0  0  0  0
  -11.4377    3.3157   -5.1544 H   0  0  0  0  0  0  0  0  0  0  0  0
  -11.1027    2.8641   -6.8432 H   0  0  0  0  0  0  0  0  0  0  0  0
   -9.4157    4.4746   -6.0012 H   0  0  0  0  0  0  0  0  0  0  0  0
   -8.6688    2.9017   -6.3705 H   0  0  0  0  0  0  0  0  0  0  0  0
   -8.8038    2.2752   -3.9751 H   0  0  0  0  0  0  0  0  0  0  0  0
   -9.5507    3.8481   -3.6058 H   0  0  0  0  0  0  0  0  0  0  0  0
   -7.5287    5.0070   -4.4526 H   0  0  0  0  0  0  0  0  0  0  0  0
   -6.7818    3.4341   -4.8219 H   0  0  0  0  0  0  0  0  0  0  0  0
   -4.9081    3.0069    0.8596 H   0  0  0  0  0  0  0  0  0  0  0  0
   -4.4745    1.8631   -0.4335 H   0  0  0  0  0  0  0  0  0  0  0  0
   -5.9431   -0.0623   -0.9211 H   0  0  0  0  0  0  0  0  0  0  0  0
   -7.4473   -1.7467    0.0572 H   0  0  0  0  0  0  0  0  0  0  0  0
   -8.1949    0.8561    3.3663 H   0  0  0  0  0  0  0  0  0  0  0  0
   -6.6815    2.5303    2.3845 H   0  0  0  0  0  0  0  0  0  0  0  0
  -10.0622   -1.9879    0.6587 H   0  0  0  0  0  0  0  0  0  0  0  0
  -11.2262   -3.6384    2.3251 H   0  0  0  0  0  0  0  0  0  0  0  0
   -9.9629   -3.4631    4.6764 H   0  0  0  0  0  0  0  0  0  0  0  0
   -7.5906    5.6320    0.7535 H   0  0  0  0  0  0  0  0  0  0  0  0
   -6.5139    4.4040    1.4613 H   0  0  0  0  0  0  0  0  0  0  0  0
   -4.5419    5.5985    0.6369 H   0  0  0  0  0  0  0  0  0  0  0  0
   -5.5728    6.7776   -0.2088 H   0  0  0  0  0  0  0  0  0  0  0  0
   -6.5355    7.4927    1.9616 H   0  0  0  0  0  0  0  0  0  0  0  0
   -5.5046    6.3135    2.8073 H   0  0  0  0  0  0  0  0  0  0  0  0
   -4.5144    8.6328    1.0876 H   0  0  0  0  0  0  0  0  0  0  0  0
   -4.4986    8.5791    2.8667 H   0  0  0  0  0  0  0  0  0  0  0  0
   -3.4835    7.4536    1.9333 H   0  0  0  0  0  0  0  0  0  0  0  0
   -6.8370   -0.6249    4.3884 O   0  5  0  0  0  0  0  0  0  0  0  0
  1  2  1  0  0  0  0
  1 28  1  0  0  0  0
  1 29  1  0  0  0  0
  1 30  1  0  0  0  0
  2  3  1  0  0  0  0
  2 31  1  0  0  0  0
  2 32  1  0  0  0  0
  3  4  1  0  0  0  0
  3 33  1  0  0  0  0
  3 34  1  0  0  0  0
  4  5  1  0  0  0  0
  4 35  1  0  0  0  0
  4 36  1  0  0  0  0
  5  9  2  0  0  0  0
  5  6  1  0  0  0  0
  6  7  2  0  0  0  0
  7  8  1  0  0  0  0
  7 24  1  0  0  0  0
  8  9  1  0  0  0  0
  8 10  1  0  0  0  0
 10 11  1  0  0  0  0
 10 37  1  0  0  0  0
 10 38  1  0  0  0  0
 11 16  2  0  0  0  0
 11 12  1  0  0  0  0
 12 13  2  0  0  0  0
 12 39  1  0  0  0  0
 13 14  1  0  0  0  0
 13 40  1  0  0  0  0
 14 15  2  0  0  0  0
 14 17  1  0  0  0  0
 15 16  1  0  0  0  0
 15 41  1  0  0  0  0
 16 42  1  0  0  0  0
 17 21  1  0  0  0  0
 17 18  1  0  0  0  0
 18 19  2  0  0  0  0
 18 43  1  0  0  0  0
 19 20  1  0  0  0  0
 19 44  1  0  0  0  0
 20 21  2  0  0  0  0
 20 45  1  0  0  0  0
 21 22  1  0  0  0  0
 22 23  2  0  0  0  0
 22 55  1  0  0  0  0
 24 25  1  0  0  0  0
 24 46  1  0  0  0  0
 24 47  1  0  0  0  0
 25 26  1  0  0  0  0
 25 48  1  0  0  0  0
 25 49  1  0  0  0  0
 26 27  1  0  0  0  0
 26 50  1  0  0  0  0
 26 51  1  0  0  0  0
 27 52  1  0  0  0  0
 27 53  1  0  0  0  0
 27 54  1  0  0  0  0
M  CHG  1  55  -1
M  END
$$$$
ZINC01534421
  -OEChem-08230709463D

 54 56  0     0  0  0  0  0  0999 V2000
   -4.2032    1.7988    3.2012 C   0  0  0  0  0  0  0  0  0  0  0  0
   -3.7648    2.0015    1.7495 C   0  0  0  0  0  0  0  0  0  0  0  0
   -2.2766    1.6724    1.6155 C   0  0  0  0  0  0  0  0  0  0  0  0
   -1.8382    1.8751    0.1637 C   0  0  0  0  0  0  0  0  0  0  0  0
   -0.3724    1.5509    0.0317 C   0  0  0  0  0  0  0  0  0  0  0  0
    0.0362    0.2674   -0.0946 C   0  0  0  0  0  0  0  0  0  0  0  0
    1.4227    0.0063   -0.2221 C   0  0  0  0  0  0  0  0  0  0  0  0
    1.8265   -1.1403   -0.3384 O   0  0  0  0  0  0  0  0  0  0  0  0
    2.2895    1.0345   -0.2141 N   0  0  0  0  0  0  0  0  0  0  0  0
    1.8661    2.2637   -0.0905 C   0  0  0  0  0  0  0  0  0  0  0  0
    0.5566    2.5471    0.0325 N   0  0  0  0  0  0  0  0  0  0  0  0
    0.2714    3.4698    0.1227 H   0  0  0  0  0  0  0  0  0  0  0  0
    2.8669    3.3903   -0.0862 C   0  0  0  0  0  0  0  0  0  0  0  0
    3.9129    3.1391    1.0017 C   0  0  0  0  0  0  0  0  0  0  0  0
   -0.9627   -0.8609   -0.1002 C   0  0  0  0  0  0  0  0  0  0  0  0
   -1.2755   -1.2478   -1.5227 C   0  0  0  0  0  0  0  0  0  0  0  0
   -2.2787   -0.5893   -2.2111 C   0  0  0  0  0  0  0  0  0  0  0  0
   -2.5658   -0.9354   -3.5157 C   0  0  0  0  0  0  0  0  0  0  0  0
   -1.8503   -1.9588   -4.1362 C   0  0  0  0  0  0  0  0  0  0  0  0
   -0.8441   -2.6227   -3.4353 C   0  0  0  0  0  0  0  0  0  0  0  0
   -0.5622   -2.2640   -2.1330 C   0  0  0  0  0  0  0  0  0  0  0  0
   -2.1575   -2.3390   -5.5351 C   0  0  0  0  0  0  0  0  0  0  0  0
   -2.5470   -3.6407   -5.8376 C   0  0  0  0  0  0  0  0  0  0  0  0
   -2.8318   -3.9909   -7.1420 C   0  0  0  0  0  0  0  0  0  0  0  0
   -2.7340   -3.0539   -8.1577 C   0  0  0  0  0  0  0  0  0  0  0  0
   -2.3502   -1.7591   -7.8784 C   0  0  0  0  0  0  0  0  0  0  0  0
   -2.0629   -1.3851   -6.5647 C   0  0  0  0  0  0  0  0  0  0  0  0
   -1.6579   -0.0003   -6.2588 C   0  0  0  0  0  0  0  0  0  0  0  0
   -1.2926    0.2922   -5.1376 O   0  0  0  0  0  0  0  0  0  0  0  0
   -4.0329    0.7618    3.4908 H   0  0  0  0  0  0  0  0  0  0  0  0
   -3.6257    2.4568    3.8505 H   0  0  0  0  0  0  0  0  0  0  0  0
   -5.2634    2.0332    3.2967 H   0  0  0  0  0  0  0  0  0  0  0  0
   -3.9351    3.0384    1.4599 H   0  0  0  0  0  0  0  0  0  0  0  0
   -4.3424    1.3434    1.1003 H   0  0  0  0  0  0  0  0  0  0  0  0
   -2.1063    0.6354    1.9050 H   0  0  0  0  0  0  0  0  0  0  0  0
   -1.6991    2.3304    2.2647 H   0  0  0  0  0  0  0  0  0  0  0  0
   -2.0085    2.9120   -0.1258 H   0  0  0  0  0  0  0  0  0  0  0  0
   -2.4158    1.2170   -0.4855 H   0  0  0  0  0  0  0  0  0  0  0  0
    3.3585    3.4433   -1.0576 H   0  0  0  0  0  0  0  0  0  0  0  0
    2.3540    4.3312    0.1132 H   0  0  0  0  0  0  0  0  0  0  0  0
    3.4213    3.0861    1.9731 H   0  0  0  0  0  0  0  0  0  0  0  0
    4.4259    2.1983    0.8022 H   0  0  0  0  0  0  0  0  0  0  0  0
    4.6368    3.9540    1.0048 H   0  0  0  0  0  0  0  0  0  0  0  0
   -0.5446   -1.7189    0.4262 H   0  0  0  0  0  0  0  0  0  0  0  0
   -1.8771   -0.5391    0.3982 H   0  0  0  0  0  0  0  0  0  0  0  0
   -2.8354    0.1999   -1.7279 H   0  0  0  0  0  0  0  0  0  0  0  0
   -3.3462   -0.4176   -4.0536 H   0  0  0  0  0  0  0  0  0  0  0  0
   -0.2863   -3.4159   -3.9109 H   0  0  0  0  0  0  0  0  0  0  0  0
    0.2171   -2.7772   -1.5892 H   0  0  0  0  0  0  0  0  0  0  0  0
   -2.6260   -4.3770   -5.0514 H   0  0  0  0  0  0  0  0  0  0  0  0
   -3.1333   -5.0021   -7.3723 H   0  0  0  0  0  0  0  0  0  0  0  0
   -2.9600   -3.3392   -9.1745 H   0  0  0  0  0  0  0  0  0  0  0  0
   -2.2757   -1.0338   -8.6752 H   0  0  0  0  0  0  0  0  0  0  0  0
   -1.6929    0.9405   -7.2229 O   0  5  0  0  0  0  0  0  0  0  0  0
  1  2  1  0  0  0  0
  1 30  1  0  0  0  0
  1 31  1  0  0  0  0
  1 32  1  0  0  0  0
  2  3  1  0  0  0  0
  2 33  1  0  0  0  0
  2 34  1  0  0  0  0
  3  4  1  0  0  0  0
  3 35  1  0  0  0  0
  3 36  1  0  0  0  0
  4  5  1  0  0  0  0
  4 37  1  0  0  0  0
  4 38  1  0  0  0  0
  5 11  1  0  0  0  0
  5  6  2  0  0  0  0
  6  7  1  0  0  0  0
  6 15  1  0  0  0  0
  7  8  2  0  0  0  0
  7  9  1  0  0  0  0
  9 10  2  0  0  0  0
 10 11  1  0  0  0  0
 10 13  1  0  0  0  0
 11 12  1  0  0  0  0
 13 14  1  0  0  0  0
 13 39  1  0  0  0  0
 13 40  1  0  0  0  0
 14 41  1  0  0  0  0
 14 42  1  0  0  0  0
 14 43  1  0  0  0  0
 15 16  1  0  0  0  0
 15 44  1  0  0  0  0
 15 45  1  0  0  0  0
 16 21  2  0  0  0  0
 16 17  1  0  0  0  0
 17 18  2  0  0  0  0
 17 46  1  0  0  0  0
 18 19  1  0  0  0  0
 18 47  1  0  0  0  0
 19 20  2  0  0  0  0
 19 22  1  0  0  0  0
 20 21  1  0  0  0  0
 20 48  1  0  0  0  0
 21 49  1  0  0  0  0
 22 27  2  0  0  0  0
 22 23  1  0  0  0  0
 23 24  2  0  0  0  0
 23 50  1  0  0  0  0
 24 25  1  0  0  0  0
 24 51  1  0  0  0  0
 25 26  2  0  0  0  0
 25 52  1  0  0  0  0
 26 27  1  0  0  0  0
 26 53  1  0  0  0  0
 27 28  1  0  0  0  0
 28 29  2  0  0  0  0
 28 54  1  0  0  0  0
M  CHG  1  54  -1
M  END
$$$$
ZINC01534674
  -OEChem-08230709463D

 58 60  0     0  0  0  0  0  0999 V2000
    0.0088    1.1433    0.7952 C   0  0  0  0  0  0  0  0  0  0  0  0
    0.6172    0.7779   -0.5602 C   0  0  0  0  0  0  0  0  0  0  0  0
   -0.2282    1.3065   -1.6335 N   0  0  0  0  0  0  0  0  0  0  0  0
   -1.2025    0.5039   -2.1910 C   0  0  0  0  0  0  0  0  0  0  0  0
   -1.9954    0.9933   -3.1880 C   0  0  0  0  0  0  0  0  0  0  0  0
   -1.7925    2.3166   -3.6363 C   0  0  0  0  0  0  0  0  0  0  0  0
   -2.5425    2.8186   -4.6044 N   0  0  0  0  0  0  0  0  0  0  0  0
   -2.2193    4.0149   -5.1639 C   0  0  0  0  0  0  0  0  0  0  0  0
   -2.8573    5.1860   -4.7323 C   0  0  0  0  0  0  0  0  0  0  0  0
   -2.5286    6.3861   -5.2897 C   0  0  0  0  0  0  0  0  0  0  0  0
   -1.5620    6.4474   -6.3015 C   0  0  0  0  0  0  0  0  0  0  0  0
   -0.9283    5.2768   -6.7372 C   0  0  0  0  0  0  0  0  0  0  0  0
   -1.2520    4.0768   -6.1766 C   0  0  0  0  0  0  0  0  0  0  0  0
   -0.5697    2.8175   -6.6452 C   0  0  0  0  0  0  0  0  0  0  0  0
   -1.2118    7.7422   -6.9068 C   0  0  0  0  0  0  0  0  0  0  0  0
   -0.3727    7.7957   -7.7846 O   0  0  0  0  0  0  0  0  0  0  0  0
   -3.9018    5.1195   -3.6480 C   0  0  0  0  0  0  0  0  0  0  0  0
   -0.8006    3.0820   -3.0507 N   0  0  0  0  0  0  0  0  0  0  0  0
   -0.0411    2.5659   -2.0665 C   0  0  0  0  0  0  0  0  0  0  0  0
    0.8278    3.2495   -1.5605 O   0  0  0  0  0  0  0  0  0  0  0  0
   -0.5756    4.4572   -3.5028 C   0  0  0  0  0  0  0  0  0  0  0  0
   -1.3898   -0.8771   -1.7071 C   0  0  0  0  0  0  0  0  0  0  0  0
   -2.6374   -1.2894   -1.2311 C   0  0  0  0  0  0  0  0  0  0  0  0
   -2.8104   -2.5799   -0.7794 C   0  0  0  0  0  0  0  0  0  0  0  0
   -1.7477   -3.4727   -0.7955 C   0  0  0  0  0  0  0  0  0  0  0  0
   -0.5006   -3.0684   -1.2690 C   0  0  0  0  0  0  0  0  0  0  0  0
   -0.3215   -1.7780   -1.7291 C   0  0  0  0  0  0  0  0  0  0  0  0
    0.5382   -3.9459   -1.2837 O   0  0  0  0  0  0  0  0  0  0  0  0
    1.7877   -3.4638   -1.7822 C   0  0  0  0  0  0  0  0  0  0  0  0
   -1.9235   -4.7438   -0.3492 O   0  0  0  0  0  0  0  0  0  0  0  0
   -3.2271   -5.0914    0.1218 C   0  0  0  0  0  0  0  0  0  0  0  0
    0.6378    0.7500    1.5938 H   0  0  0  0  0  0  0  0  0  0  0  0
   -0.0555    2.2278    0.8841 H   0  0  0  0  0  0  0  0  0  0  0  0
   -0.9894    0.7125    0.8734 H   0  0  0  0  0  0  0  0  0  0  0  0
    0.6816   -0.3066   -0.6490 H   0  0  0  0  0  0  0  0  0  0  0  0
    1.6154    1.2087   -0.6383 H   0  0  0  0  0  0  0  0  0  0  0  0
   -2.7639    0.3765   -3.6301 H   0  0  0  0  0  0  0  0  0  0  0  0
   -3.0172    7.2890   -4.9544 H   0  0  0  0  0  0  0  0  0  0  0  0
   -0.1833    5.3246   -7.5177 H   0  0  0  0  0  0  0  0  0  0  0  0
   -1.1380    2.3803   -7.4662 H   0  0  0  0  0  0  0  0  0  0  0  0
    0.4376    3.0555   -6.9867 H   0  0  0  0  0  0  0  0  0  0  0  0
   -0.5153    2.1057   -5.8214 H   0  0  0  0  0  0  0  0  0  0  0  0
   -3.4241    5.2388   -2.6756 H   0  0  0  0  0  0  0  0  0  0  0  0
   -4.6299    5.9171   -3.7955 H   0  0  0  0  0  0  0  0  0  0  0  0
   -4.4068    4.1544   -3.6887 H   0  0  0  0  0  0  0  0  0  0  0  0
    0.2147    4.9115   -2.9052 H   0  0  0  0  0  0  0  0  0  0  0  0
   -0.2798    4.4509   -4.5519 H   0  0  0  0  0  0  0  0  0  0  0  0
   -1.4943    5.0324   -3.3878 H   0  0  0  0  0  0  0  0  0  0  0  0
   -3.4658   -0.5966   -1.2167 H   0  0  0  0  0  0  0  0  0  0  0  0
   -3.7750   -2.8973   -0.4117 H   0  0  0  0  0  0  0  0  0  0  0  0
    0.6430   -1.4648   -2.1007 H   0  0  0  0  0  0  0  0  0  0  0  0
    2.5286   -4.2621   -1.7388 H   0  0  0  0  0  0  0  0  0  0  0  0
    1.6653   -3.1374   -2.8150 H   0  0  0  0  0  0  0  0  0  0  0  0
    2.1222   -2.6241   -1.1730 H   0  0  0  0  0  0  0  0  0  0  0  0
   -3.4946   -4.4472    0.9594 H   0  0  0  0  0  0  0  0  0  0  0  0
   -3.9509   -4.9607   -0.6827 H   0  0  0  0  0  0  0  0  0  0  0  0
   -3.2302   -6.1315    0.4479 H   0  0  0  0  0  0  0  0  0  0  0  0
   -1.8216    8.8691   -6.4876 O   0  5  0  0  0  0  0  0  0  0  0  0
  1  2  1  0  0  0  0
  1 32  1  0  0  0  0
  1 33  1  0  0  0  0
  1 34  1  0  0  0  0
  2  3  1  0  0  0  0
  2 35  1  0  0  0  0
  2 36  1  0  0  0  0
  3 19  1  0  0  0  0
  3  4  1  0  0  0  0
  4  5  2  0  0  0  0
  4 22  1  0  0  0  0
  5  6  1  0  0  0  0
  5 37  1  0  0  0  0
  6  7  2  0  0  0  0
  6 18  1  0  0  0  0
  7  8  1  0  0  0  0
  8 13  2  0  0  0  0
  8  9  1  0  0  0  0
  9 10  2  0  0  0  0
  9 17  1  0  0  0  0
 10 11  1  0  0  0  0
 10 38  1  0  0  0  0
 11 12  2  0  0  0  0
 11 15  1  0  0  0  0
 12 13  1  0  0  0  0
 12 39  1  0  0  0  0
 13 14  1  0  0  0  0
 14 40  1  0  0  0  0
 14 41  1  0  0  0  0
 14 42  1  0  0  0  0
 15 16  2  0  0  0  0
 15 58  1  0  0  0  0
 17 43  1  0  0  0  0
 17 44  1  0  0  0  0
 17 45  1  0  0  0  0
 18 19  1  0  0  0  0
 18 21  1  0  0  0  0
 19 20  2  0  0  0  0
 21 46  1  0  0  0  0
 21 47  1  0  0  0  0
 21 48  1  0  0  0  0
 22 27  2  0  0  0  0
 22 23  1  0  0  0  0
 23 24  2  0  0  0  0
 23 49  1  0  0  0  0
 24 25  1  0  0  0  0
 24 50  1  0  0  0  0
 25 26  2  0  0  0  0
 25 30  1  0  0  0  0
 26 27  1  0  0  0  0
 26 28  1  0  0  0  0
 27 51  1  0  0  0  0
 28 29  1  0  0  0  0
 29 52  1  0  0  0  0
 29 53  1  0  0  0  0
 29 54  1  0  0  0  0
 30 31  1  0  0  0  0
 31 55  1  0  0  0  0
 31 56  1  0  0  0  0
 31 57  1  0  0  0  0
M  CHG  1  58  -1
M  END
$$$$
ZINC01535652
  -OEChem-08230709463D

 64 66  0     1  0  0  0  0  0999 V2000
    5.3321    9.8172   -0.0031 C   0  0  0  0  0  0  0  0  0  0  0  0
    5.3638    8.2875   -0.0095 C   0  0  0  0  0  0  0  0  0  0  0  0
    3.9322    7.7477    0.0008 C   0  0  0  0  0  0  0  0  0  0  0  0
    3.9639    6.2180   -0.0056 C   0  0  0  0  0  0  0  0  0  0  0  0
    2.5324    5.6782    0.0047 C   0  0  0  0  0  0  0  0  0  0  0  0
    2.5641    4.1485   -0.0018 C   0  0  0  0  0  0  0  0  0  0  0  0
    1.1325    3.6087    0.0086 C   0  0  0  0  0  0  0  0  0  0  0  0
    0.3899    4.1087   -1.2322 C   0  0  0  0  0  0  0  0  0  0  0  0
    0.4118    4.0986    1.2662 C   0  0  0  0  0  0  0  0  0  0  0  0
    1.1637    2.1021    0.0022 C   0  0  0  0  0  0  0  0  0  0  0  0
    2.3748    1.4364   -0.0111 C   0  0  0  0  0  0  0  0  0  0  0  0
    2.4012    0.0505   -0.0190 C   0  0  0  0  0  0  0  0  0  0  0  0
    1.2144   -0.6719   -0.0144 C   0  0  0  0  0  0  0  0  0  0  0  0
    0.0021   -0.0041    0.0020 C   0  0  0  0  0  0  0  0  0  0  0  0
   -0.0168    1.3879    0.0097 C   0  0  0  0  0  0  0  0  0  0  0  0
   -1.1837   -0.6666    0.0166 O   0  0  0  0  0  0  0  0  0  0  0  0
   -1.1889   -2.0536   -0.3276 C   0  0  0  0  0  0  0  0  0  0  0  0
   -0.0673   -2.7460    0.4493 C   0  0  2  0  0  0  0  0  0  0  0  0
   -0.1873   -2.5570    1.5161 H   0  0  0  0  0  0  0  0  0  0  0  0
    1.2735   -2.1745   -0.0312 C   0  0  2  0  0  0  0  0  0  0  0  0
    1.4734   -2.5193   -1.0457 H   0  0  0  0  0  0  0  0  0  0  0  0
    2.3689   -2.6823    0.9076 C   0  0  0  0  0  0  0  0  0  0  0  0
    2.2594   -4.1754    1.0440 C   0  0  0  0  0  0  0  0  0  0  0  0
    1.1854   -4.8649    0.7188 C   0  0  0  0  0  0  0  0  0  0  0  0
   -0.0857   -4.2526    0.1862 C   0  0  0  0  0  0  0  0  0  0  0  0
    3.4185   -4.9085    1.5717 C   0  0  0  0  0  0  0  0  0  0  0  0
    3.3681   -6.1164    1.6966 O   0  0  0  0  0  0  0  0  0  0  0  0
   -2.5360   -2.6733    0.0493 C   0  0  0  0  0  0  0  0  0  0  0  0
   -0.9506   -2.2127   -1.8305 C   0  0  0  0  0  0  0  0  0  0  0  0
    3.5922   -0.6039   -0.0316 O   0  0  0  0  0  0  0  0  0  0  0  0
    4.8187   10.1662    0.8928 H   0  0  0  0  0  0  0  0  0  0  0  0
    6.3520   10.2017   -0.0105 H   0  0  0  0  0  0  0  0  0  0  0  0
    4.8031   10.1733   -0.8871 H   0  0  0  0  0  0  0  0  0  0  0  0
    5.8928    7.9313    0.8744 H   0  0  0  0  0  0  0  0  0  0  0  0
    5.8773    7.9385   -0.9054 H   0  0  0  0  0  0  0  0  0  0  0  0
    3.4032    8.1039   -0.8832 H   0  0  0  0  0  0  0  0  0  0  0  0
    3.4188    8.0967    0.8967 H   0  0  0  0  0  0  0  0  0  0  0  0
    4.4929    5.8618    0.8783 H   0  0  0  0  0  0  0  0  0  0  0  0
    4.4774    5.8690   -0.9016 H   0  0  0  0  0  0  0  0  0  0  0  0
    2.0034    6.0344   -0.8793 H   0  0  0  0  0  0  0  0  0  0  0  0
    2.0189    6.0272    0.9006 H   0  0  0  0  0  0  0  0  0  0  0  0
    3.0931    3.7924    0.8822 H   0  0  0  0  0  0  0  0  0  0  0  0
    3.0775    3.7995   -0.8977 H   0  0  0  0  0  0  0  0  0  0  0  0
   -0.6299    3.7241   -1.2249 H   0  0  0  0  0  0  0  0  0  0  0  0
    0.3674    5.1984   -1.2276 H   0  0  0  0  0  0  0  0  0  0  0  0
    0.9034    3.7597   -2.1281 H   0  0  0  0  0  0  0  0  0  0  0  0
    0.9408    3.7424    2.1501 H   0  0  0  0  0  0  0  0  0  0  0  0
    0.3892    5.1884    1.2707 H   0  0  0  0  0  0  0  0  0  0  0  0
   -0.6081    3.7140    1.2735 H   0  0  0  0  0  0  0  0  0  0  0  0
    3.2990    1.9951   -0.0150 H   0  0  0  0  0  0  0  0  0  0  0  0
   -0.9611    1.9119    0.0170 H   0  0  0  0  0  0  0  0  0  0  0  0
    3.3460   -2.4255    0.4983 H   0  0  0  0  0  0  0  0  0  0  0  0
    2.2518   -2.2183    1.8870 H   0  0  0  0  0  0  0  0  0  0  0  0
    1.2078   -5.9358    0.8572 H   0  0  0  0  0  0  0  0  0  0  0  0
   -0.9542   -4.6959    0.6733 H   0  0  0  0  0  0  0  0  0  0  0  0
   -0.1394   -4.4334   -0.8873 H   0  0  0  0  0  0  0  0  0  0  0  0
   -3.3341   -2.1639   -0.4908 H   0  0  0  0  0  0  0  0  0  0  0  0
   -2.5361   -3.7308   -0.2148 H   0  0  0  0  0  0  0  0  0  0  0  0
   -2.6977   -2.5666    1.1219 H   0  0  0  0  0  0  0  0  0  0  0  0
    0.0141   -1.7788   -2.0934 H   0  0  0  0  0  0  0  0  0  0  0  0
   -0.9553   -3.2716   -2.0890 H   0  0  0  0  0  0  0  0  0  0  0  0
   -1.7409   -1.7011   -2.3799 H   0  0  0  0  0  0  0  0  0  0  0  0
    3.9303   -0.7881   -0.9187 H   0  0  0  0  0  0  0  0  0  0  0  0
    4.5376   -4.2413    1.9173 O   0  5  0  0  0  0  0  0  0  0  0  0
  1  2  1  0  0  0  0
  1 31  1  0  0  0  0
  1 32  1  0  0  0  0
  1 33  1  0  0  0  0
  2  3  1  0  0  0  0
  2 34  1  0  0  0  0
  2 35  1  0  0  0  0
  3  4  1  0  0  0  0
  3 36  1  0  0  0  0
  3 37  1  0  0  0  0
  4  5  1  0  0  0  0
  4 38  1  0  0  0  0
  4 39  1  0  0  0  0
  5  6  1  0  0  0  0
  5 40  1  0  0  0  0
  5 41  1  0  0  0  0
  6  7  1  0  0  0  0
  6 42  1  0  0  0  0
  6 43  1  0  0  0  0
  7  8  1  0  0  0  0
  7  9  1  0  0  0  0
  7 10  1  0  0  0  0
  8 44  1  0  0  0  0
  8 45  1  0  0  0  0
  8 46  1  0  0  0  0
  9 47  1  0  0  0  0
  9 48  1  0  0  0  0
  9 49  1  0  0  0  0
 10 15  2  0  0  0  0
 10 11  1  0  0  0  0
 11 12  2  0  0  0  0
 11 50  1  0  0  0  0
 12 13  1  0  0  0  0
 12 30  1  0  0  0  0
 13 20  1  0  0  0  0
 13 14  2  0  0  0  0
 14 15  1  0  0  0  0
 14 16  1  0  0  0  0
 15 51  1  0  0  0  0
 16 17  1  0  0  0  0
 17 18  1  0  0  0  0
 17 28  1  0  0  0  0
 17 29  1  0  0  0  0
 18 19  1  0  0  0  0
 18 25  1  0  0  0  0
 18 20  1  0  0  0  0
 20 21  1  0  0  0  0
 20 22  1  0  0  0  0
 22 23  1  0  0  0  0
 22 52  1  0  0  0  0
 22 53  1  0  0  0  0
 23 24  2  0  0  0  0
 23 26  1  0  0  0  0
 24 25  1  0  0  0  0
 24 54  1  0  0  0  0
 25 55  1  0  0  0  0
 25 56  1  0  0  0  0
 26 27  2  0  0  0  0
 26 64  1  0  0  0  0
 28 57  1  0  0  0  0
 28 58  1  0  0  0  0
 28 59  1  0  0  0  0
 29 60  1  0  0  0  0
 29 61  1  0  0  0  0
 29 62  1  0  0  0  0
 30 63  1  0  0  0  0
M  CHG  1  64  -1
M  END
$$$$
ZINC01539151
  -OEChem-08230709463D

 60 64  0     0  0  0  0  0  0999 V2000
   -8.6184    9.9243    4.6747 C   0  0  0  0  0  0  0  0  0  0  0  0
   -8.7220   10.1487    3.1648 C   0  0  0  0  0  0  0  0  0  0  0  0
  -10.1751   10.4422    2.7978 C   0  0  0  0  0  0  0  0  0  0  0  0
  -10.9941    9.1624    3.0034 C   0  0  0  0  0  0  0  0  0  0  0  0
  -10.5899    8.1546    1.9294 C   0  0  0  0  0  0  0  0  0  0  0  0
   -9.0926    7.9987    1.8853 C   0  0  0  0  0  0  0  0  0  0  0  0
   -8.2316    8.9187    2.4447 C   0  0  0  0  0  0  0  0  0  0  0  0
   -6.8569    8.7286    2.3625 C   0  0  0  0  0  0  0  0  0  0  0  0
   -6.3330    7.6232    1.7286 C   0  0  0  0  0  0  0  0  0  0  0  0
   -7.2087    6.6893    1.1671 C   0  0  0  0  0  0  0  0  0  0  0  0
   -8.5807    6.8758    1.2496 C   0  0  0  0  0  0  0  0  0  0  0  0
   -6.6100    5.5061    0.5158 C   0  0  0  0  0  0  0  0  0  0  0  0
   -5.3058    5.1547    0.7845 C   0  0  0  0  0  0  0  0  0  0  0  0
   -5.0162    4.0086    0.0475 C   0  0  0  0  0  0  0  0  0  0  0  0
   -6.0970    3.6748   -0.6372 N   0  0  0  0  0  0  0  0  0  0  0  0
   -7.1094    4.6080   -0.3556 N   0  0  0  0  0  0  0  0  0  0  0  0
   -8.4654    4.6048   -0.9103 C   0  0  0  0  0  0  0  0  0  0  0  0
   -3.7220    3.2847    0.0375 C   0  0  0  0  0  0  0  0  0  0  0  0
   -3.0185    3.0984    1.2277 C   0  0  0  0  0  0  0  0  0  0  0  0
   -1.8172    2.4268    1.2199 C   0  0  0  0  0  0  0  0  0  0  0  0
   -1.3022    1.9311    0.0187 C   0  0  0  0  0  0  0  0  0  0  0  0
   -2.0054    2.1235   -1.1739 C   0  0  0  0  0  0  0  0  0  0  0  0
   -3.2094    2.7901   -1.1621 C   0  0  0  0  0  0  0  0  0  0  0  0
   -0.0144    1.2107    0.0088 C   0  0  0  0  0  0  0  0  0  0  0  0
    0.5987    1.0481    1.0449 O   0  0  0  0  0  0  0  0  0  0  0  0
   -4.4452    5.9592    1.7223 C   0  0  0  0  0  0  0  0  0  0  0  0
   -4.8440    7.4335    1.6342 C   0  0  0  0  0  0  0  0  0  0  0  0
  -11.0865    8.6430    0.5671 C   0  0  0  0  0  0  0  0  0  0  0  0
  -11.2291    6.8003    2.2424 C   0  0  0  0  0  0  0  0  0  0  0  0
   -7.8513   11.3440    2.7723 C   0  0  0  0  0  0  0  0  0  0  0  0
   -7.5794    9.7338    4.9432 H   0  0  0  0  0  0  0  0  0  0  0  0
   -8.9723   10.8120    5.1990 H   0  0  0  0  0  0  0  0  0  0  0  0
   -9.2298    9.0674    4.9574 H   0  0  0  0  0  0  0  0  0  0  0  0
  -10.2349   10.7525    1.7546 H   0  0  0  0  0  0  0  0  0  0  0  0
  -10.5635   11.2335    3.4389 H   0  0  0  0  0  0  0  0  0  0  0  0
  -12.0567    9.3882    2.9139 H   0  0  0  0  0  0  0  0  0  0  0  0
  -10.7879    8.7493    3.9908 H   0  0  0  0  0  0  0  0  0  0  0  0
   -6.1910    9.4566    2.8017 H   0  0  0  0  0  0  0  0  0  0  0  0
   -9.2515    6.1501    0.8139 H   0  0  0  0  0  0  0  0  0  0  0  0
   -9.1208    4.0208   -0.2644 H   0  0  0  0  0  0  0  0  0  0  0  0
   -8.8348    5.6284   -0.9728 H   0  0  0  0  0  0  0  0  0  0  0  0
   -8.4493    4.1630   -1.9066 H   0  0  0  0  0  0  0  0  0  0  0  0
   -3.4165    3.4818    2.1556 H   0  0  0  0  0  0  0  0  0  0  0  0
   -1.2730    2.2824    2.1415 H   0  0  0  0  0  0  0  0  0  0  0  0
   -1.6063    1.7452   -2.1034 H   0  0  0  0  0  0  0  0  0  0  0  0
   -3.7552    2.9350   -2.0828 H   0  0  0  0  0  0  0  0  0  0  0  0
   -4.5882    5.6039    2.7428 H   0  0  0  0  0  0  0  0  0  0  0  0
   -3.3980    5.8481    1.4410 H   0  0  0  0  0  0  0  0  0  0  0  0
   -4.3653    7.9791    2.4474 H   0  0  0  0  0  0  0  0  0  0  0  0
   -4.4963    7.8382    0.6837 H   0  0  0  0  0  0  0  0  0  0  0  0
  -10.8173    7.9164   -0.1996 H   0  0  0  0  0  0  0  0  0  0  0  0
  -12.1701    8.7571    0.5949 H   0  0  0  0  0  0  0  0  0  0  0  0
  -10.6258    9.6033    0.3353 H   0  0  0  0  0  0  0  0  0  0  0  0
  -10.8703    6.4437    3.2079 H   0  0  0  0  0  0  0  0  0  0  0  0
  -12.3131    6.9090    2.2752 H   0  0  0  0  0  0  0  0  0  0  0  0
  -10.9591    6.0832    1.4671 H   0  0  0  0  0  0  0  0  0  0  0  0
   -7.9144   11.5015    1.6956 H   0  0  0  0  0  0  0  0  0  0  0  0
   -8.2029   12.2357    3.2912 H   0  0  0  0  0  0  0  0  0  0  0  0
   -6.8161   11.1462    3.0505 H   0  0  0  0  0  0  0  0  0  0  0  0
    0.4787    0.7283   -1.1487 O   0  5  0  0  0  0  0  0  0  0  0  0
  1  2  1  0  0  0  0
  1 31  1  0  0  0  0
  1 32  1  0  0  0  0
  1 33  1  0  0  0  0
  2  7  1  0  0  0  0
  2  3  1  0  0  0  0
  2 30  1  0  0  0  0
  3  4  1  0  0  0  0
  3 34  1  0  0  0  0
  3 35  1  0  0  0  0
  4  5  1  0  0  0  0
  4 36  1  0  0  0  0
  4 37  1  0  0  0  0
  5  6  1  0  0  0  0
  5 28  1  0  0  0  0
  5 29  1  0  0  0  0
  6 11  2  0  0  0  0
  6  7  1  0  0  0  0
  7  8  2  0  0  0  0
  8  9  1  0  0  0  0
  8 38  1  0  0  0  0
  9 27  1  0  0  0  0
  9 10  2  0  0  0  0
 10 11  1  0  0  0  0
 10 12  1  0  0  0  0
 11 39  1  0  0  0  0
 12 16  1  0  0  0  0
 12 13  2  0  0  0  0
 13 14  1  0  0  0  0
 13 26  1  0  0  0  0
 14 15  2  0  0  0  0
 14 18  1  0  0  0  0
 15 16  1  0  0  0  0
 16 17  1  0  0  0  0
 17 40  1  0  0  0  0
 17 41  1  0  0  0  0
 17 42  1  0  0  0  0
 18 23  2  0  0  0  0
 18 19  1  0  0  0  0
 19 20  2  0  0  0  0
 19 43  1  0  0  0  0
 20 21  1  0  0  0  0
 20 44  1  0  0  0  0
 21 22  2  0  0  0  0
 21 24  1  0  0  0  0
 22 23  1  0  0  0  0
 22 45  1  0  0  0  0
 23 46  1  0  0  0  0
 24 25  2  0  0  0  0
 24 60  1  0  0  0  0
 26 27  1  0  0  0  0
 26 47  1  0  0  0  0
 26 48  1  0  0  0  0
 27 49  1  0  0  0  0
 27 50  1  0  0  0  0
 28 51  1  0  0  0  0
 28 52  1  0  0  0  0
 28 53  1  0  0  0  0
 29 54  1  0  0  0  0
 29 55  1  0  0  0  0
 29 56  1  0  0  0  0
 30 57  1  0  0  0  0
 30 58  1  0  0  0  0
 30 59  1  0  0  0  0
M  CHG  1  60  -1
M  END
$$$$
ZINC01539544
  -OEChem-08230709463D

 57 59  0     0  0  0  0  0  0999 V2000
   -2.5229   -0.6971    1.2872 C   0  0  0  0  0  0  0  0  0  0  0  0
   -3.0543    0.7124    1.2434 C   0  0  0  0  0  0  0  0  0  0  0  0
   -4.4109    0.9405    1.2252 C   0  0  0  0  0  0  0  0  0  0  0  0
   -4.9147    2.2363    1.1800 C   0  0  0  0  0  0  0  0  0  0  0  0
   -4.0503    3.3113    1.1636 C   0  0  0  0  0  0  0  0  0  0  0  0
   -2.6820    3.0962    1.1834 C   0  0  0  0  0  0  0  0  0  0  0  0
   -2.1712    1.7974    1.2266 C   0  0  0  0  0  0  0  0  0  0  0  0
   -0.7181    1.5718    1.2479 C   0  0  0  0  0  0  0  0  0  0  0  0
   -0.0148    1.8006    2.3803 C   0  0  0  0  0  0  0  0  0  0  0  0
    1.3802    1.5840    2.4008 C   0  0  0  0  0  0  0  0  0  0  0  0
    2.0861    1.8137    3.5374 C   0  0  0  0  0  0  0  0  0  0  0  0
    3.4829    1.5969    3.5579 C   0  0  0  0  0  0  0  0  0  0  0  0
    4.3317    1.7909    4.6521 C   0  0  0  0  0  0  0  0  0  0  0  0
    5.6705    1.4313    4.1711 C   0  0  0  0  0  0  0  0  0  0  0  0
    5.5238    1.0674    2.8863 C   0  0  0  0  0  0  0  0  0  0  0  0
    4.2329    1.1616    2.5307 O   0  0  0  0  0  0  0  0  0  0  0  0
    3.9628    2.2554    5.9938 C   0  0  0  0  0  0  0  0  0  0  0  0
    2.8031    2.5187    6.2485 O   0  0  0  0  0  0  0  0  0  0  0  0
   -0.0127    1.0858    0.0080 C   0  0  0  0  0  0  0  0  0  0  0  0
   -4.5325    4.7383    1.1331 C   0  0  0  0  0  0  0  0  0  0  0  0
   -5.9901    4.8038    0.6822 C   0  0  0  0  0  0  0  0  0  0  0  0
   -6.8050    3.8246    1.5352 C   0  0  0  0  0  0  0  0  0  0  0  0
   -6.4121    2.4018    1.1432 C   0  0  0  0  0  0  0  0  0  0  0  0
   -6.9173    2.1106   -0.2713 C   0  0  0  0  0  0  0  0  0  0  0  0
   -7.0529    1.4141    2.1203 C   0  0  0  0  0  0  0  0  0  0  0  0
   -4.4101    5.3421    2.5336 C   0  0  0  0  0  0  0  0  0  0  0  0
   -3.6671    5.5424    0.1608 C   0  0  0  0  0  0  0  0  0  0  0  0
   -2.4082   -1.0101    2.3250 H   0  0  0  0  0  0  0  0  0  0  0  0
   -3.2208   -1.3644    0.7815 H   0  0  0  0  0  0  0  0  0  0  0  0
   -1.5554   -0.7364    0.7868 H   0  0  0  0  0  0  0  0  0  0  0  0
   -5.0929    0.1033    1.2422 H   0  0  0  0  0  0  0  0  0  0  0  0
   -2.0061    3.9384    1.1658 H   0  0  0  0  0  0  0  0  0  0  0  0
   -0.5203    2.1489    3.2688 H   0  0  0  0  0  0  0  0  0  0  0  0
    1.8857    1.2358    1.5122 H   0  0  0  0  0  0  0  0  0  0  0  0
    1.5806    2.1620    4.4260 H   0  0  0  0  0  0  0  0  0  0  0  0
    6.5902    1.4550    4.7368 H   0  0  0  0  0  0  0  0  0  0  0  0
    6.3242    0.7435    2.2376 H   0  0  0  0  0  0  0  0  0  0  0  0
    0.0021   -0.0041    0.0020 H   0  0  0  0  0  0  0  0  0  0  0  0
    1.0099    1.4631    0.0003 H   0  0  0  0  0  0  0  0  0  0  0  0
   -0.5399    1.4469   -0.8751 H   0  0  0  0  0  0  0  0  0  0  0  0
   -6.0622    4.5232   -0.3686 H   0  0  0  0  0  0  0  0  0  0  0  0
   -6.3721    5.8155    0.8189 H   0  0  0  0  0  0  0  0  0  0  0  0
   -7.8688    3.9753    1.3519 H   0  0  0  0  0  0  0  0  0  0  0  0
   -6.5877    3.9877    2.5908 H   0  0  0  0  0  0  0  0  0  0  0  0
   -6.6558    1.0890   -0.5473 H   0  0  0  0  0  0  0  0  0  0  0  0
   -8.0003    2.2293   -0.3019 H   0  0  0  0  0  0  0  0  0  0  0  0
   -6.4556    2.8058   -0.9724 H   0  0  0  0  0  0  0  0  0  0  0  0
   -6.6882    1.6117    3.1282 H   0  0  0  0  0  0  0  0  0  0  0  0
   -8.1364    1.5309    2.0965 H   0  0  0  0  0  0  0  0  0  0  0  0
   -6.7908    0.3961    1.8321 H   0  0  0  0  0  0  0  0  0  0  0  0
   -3.3677    5.3154    2.8510 H   0  0  0  0  0  0  0  0  0  0  0  0
   -4.7581    6.3749    2.5157 H   0  0  0  0  0  0  0  0  0  0  0  0
   -5.0174    4.7662    3.2319 H   0  0  0  0  0  0  0  0  0  0  0  0
   -3.7434    5.1096   -0.8367 H   0  0  0  0  0  0  0  0  0  0  0  0
   -4.0129    6.5758    0.1359 H   0  0  0  0  0  0  0  0  0  0  0  0
   -2.6285    5.5147    0.4904 H   0  0  0  0  0  0  0  0  0  0  0  0
    4.9096    2.3904    6.9448 O   0  5  0  0  0  0  0  0  0  0  0  0
  1  2  1  0  0  0  0
  1 28  1  0  0  0  0
  1 29  1  0  0  0  0
  1 30  1  0  0  0  0
  2  7  2  0  0  0  0
  2  3  1  0  0  0  0
  3  4  2  0  0  0  0
  3 31  1  0  0  0  0
  4 23  1  0  0  0  0
  4  5  1  0  0  0  0
  5  6  2  0  0  0  0
  5 20  1  0  0  0  0
  6  7  1  0  0  0  0
  6 32  1  0  0  0  0
  7  8  1  0  0  0  0
  8  9  2  0  0  0  0
  8 19  1  0  0  0  0
  9 10  1  0  0  0  0
  9 33  1  0  0  0  0
 10 11  2  0  0  0  0
 10 34  1  0  0  0  0
 11 12  1  0  0  0  0
 11 35  1  0  0  0  0
 12 16  1  0  0  0  0
 12 13  2  0  0  0  0
 13 14  1  0  0  0  0
 13 17  1  0  0  0  0
 14 15  2  0  0  0  0
 14 36  1  0  0  0  0
 15 16  1  0  0  0  0
 15 37  1  0  0  0  0
 17 18  2  0  0  0  0
 17 57  1  0  0  0  0
 19 38  1  0  0  0  0
 19 39  1  0  0  0  0
 19 40  1  0  0  0  0
 20 21  1  0  0  0  0
 20 26  1  0  0  0  0
 20 27  1  0  0  0  0
 21 22  1  0  0  0  0
 21 41  1  0  0  0  0
 21 42  1  0  0  0  0
 22 23  1  0  0  0  0
 22 43  1  0  0  0  0
 22 44  1  0  0  0  0
 23 24  1  0  0  0  0
 23 25  1  0  0  0  0
 24 45  1  0  0  0  0
 24 46  1  0  0  0  0
 24 47  1  0  0  0  0
 25 48  1  0  0  0  0
 25 49  1  0  0  0  0
 25 50  1  0  0  0  0
 26 51  1  0  0  0  0
 26 52  1  0  0  0  0
 26 53  1  0  0  0  0
 27 54  1  0  0  0  0
 27 55  1  0  0  0  0
 27 56  1  0  0  0  0
M  CHG  1  57  -1
M  END
$$$$
ZINC01540024
  -OEChem-08230709463D

 66 67  0     0  0  0  0  0  0999 V2000
   -0.4514    1.7954    0.7858 C   0  0  0  0  0  0  0  0  0  0  0  0
   -1.1135    2.1745    2.1121 C   0  0  0  0  0  0  0  0  0  0  0  0
   -1.1416    3.6980    2.2509 C   0  0  0  0  0  0  0  0  0  0  0  0
   -2.5442    1.6333    2.1409 C   0  0  0  0  0  0  0  0  0  0  0  0
   -0.3286    1.5805    3.2532 C   0  0  0  0  0  0  0  0  0  0  0  0
    0.8004    0.8272    2.9966 C   0  0  0  0  0  0  0  0  0  0  0  0
    1.5233    0.2813    4.0468 C   0  0  0  0  0  0  0  0  0  0  0  0
    1.1123    0.4914    5.3548 C   0  0  0  0  0  0  0  0  0  0  0  0
   -0.0164    1.2451    5.6114 C   0  0  0  0  0  0  0  0  0  0  0  0
   -0.7366    1.7950    4.5613 C   0  0  0  0  0  0  0  0  0  0  0  0
   -1.8448    2.5413    4.8142 O   0  0  0  0  0  0  0  0  0  0  0  0
   -0.4630    1.4733    7.0325 C   0  0  0  0  0  0  0  0  0  0  0  0
    0.5002    0.7679    7.9893 C   0  0  0  0  0  0  0  0  0  0  0  0
   -0.4696    2.9741    7.3302 C   0  0  0  0  0  0  0  0  0  0  0  0
   -1.8729    0.9098    7.2208 C   0  0  0  0  0  0  0  0  0  0  0  0
    2.6348   -0.4604    3.7942 O   0  0  0  0  0  0  0  0  0  0  0  0
    3.3305   -0.9920    4.9236 C   0  0  0  0  0  0  0  0  0  0  0  0
    4.5442   -1.7912    4.4450 C   0  0  0  0  0  0  0  0  0  0  0  0
    5.2779   -2.3518    5.6360 C   0  0  0  0  0  0  0  0  0  0  0  0
    6.2902   -1.6208    6.2298 C   0  0  0  0  0  0  0  0  0  0  0  0
    6.9604   -2.1300    7.3251 C   0  0  0  0  0  0  0  0  0  0  0  0
    6.6247   -3.3809    7.8223 C   0  0  0  0  0  0  0  0  0  0  0  0
    5.6124   -4.1149    7.2212 C   0  0  0  0  0  0  0  0  0  0  0  0
    4.9414   -3.5988    6.1296 C   0  0  0  0  0  0  0  0  0  0  0  0
    7.2860   -3.8863    8.8966 O   0  0  0  0  0  0  0  0  0  0  0  0
    8.3974   -3.1338    9.3872 C   0  0  0  0  0  0  0  0  0  0  0  0
    9.0345   -3.8739   10.5649 C   0  0  0  0  0  0  0  0  0  0  0  0
    9.4310   -2.9646    8.2718 C   0  0  0  0  0  0  0  0  0  0  0  0
    7.9238   -1.7777    9.8431 C   0  0  0  0  0  0  0  0  0  0  0  0
    6.7546   -1.4856    9.7567 O   0  0  0  0  0  0  0  0  0  0  0  0
   -0.4314    0.7101    0.6869 H   0  0  0  0  0  0  0  0  0  0  0  0
    0.5679    2.1810    0.7653 H   0  0  0  0  0  0  0  0  0  0  0  0
   -1.0191    2.2251   -0.0395 H   0  0  0  0  0  0  0  0  0  0  0  0
   -1.7093    4.1276    1.4256 H   0  0  0  0  0  0  0  0  0  0  0  0
   -1.6132    3.9680    3.1957 H   0  0  0  0  0  0  0  0  0  0  0  0
   -0.1223    4.0836    2.2304 H   0  0  0  0  0  0  0  0  0  0  0  0
   -2.5242    0.5480    2.0420 H   0  0  0  0  0  0  0  0  0  0  0  0
   -3.0159    1.9034    3.0857 H   0  0  0  0  0  0  0  0  0  0  0  0
   -3.1119    2.0630    1.3156 H   0  0  0  0  0  0  0  0  0  0  0  0
    1.1205    0.6636    1.9781 H   0  0  0  0  0  0  0  0  0  0  0  0
    1.6750    0.0660    6.1726 H   0  0  0  0  0  0  0  0  0  0  0  0
   -2.6641    2.0289    4.8512 H   0  0  0  0  0  0  0  0  0  0  0  0
    1.5046    1.1694    7.8552 H   0  0  0  0  0  0  0  0  0  0  0  0
    0.1772    0.9330    9.0172 H   0  0  0  0  0  0  0  0  0  0  0  0
    0.5049   -0.3013    7.7772 H   0  0  0  0  0  0  0  0  0  0  0  0
   -1.1558    3.4767    6.6485 H   0  0  0  0  0  0  0  0  0  0  0  0
   -0.7926    3.1392    8.3580 H   0  0  0  0  0  0  0  0  0  0  0  0
    0.5348    3.3756    7.1960 H   0  0  0  0  0  0  0  0  0  0  0  0
   -1.8682   -0.1593    7.0087 H   0  0  0  0  0  0  0  0  0  0  0  0
   -2.1959    1.0749    8.2486 H   0  0  0  0  0  0  0  0  0  0  0  0
   -2.5591    1.4124    6.5391 H   0  0  0  0  0  0  0  0  0  0  0  0
    3.6630   -0.1745    5.5633 H   0  0  0  0  0  0  0  0  0  0  0  0
    2.6639   -1.6456    5.4863 H   0  0  0  0  0  0  0  0  0  0  0  0
    4.2117   -2.6087    3.8053 H   0  0  0  0  0  0  0  0  0  0  0  0
    5.2108   -1.1376    3.8823 H   0  0  0  0  0  0  0  0  0  0  0  0
    6.5541   -0.6489    5.8396 H   0  0  0  0  0  0  0  0  0  0  0  0
    7.7481   -1.5568    7.7913 H   0  0  0  0  0  0  0  0  0  0  0  0
    5.3495   -5.0891    7.6062 H   0  0  0  0  0  0  0  0  0  0  0  0
    4.1530   -4.1696    5.6615 H   0  0  0  0  0  0  0  0  0  0  0  0
    9.4534   -4.8182   10.2169 H   0  0  0  0  0  0  0  0  0  0  0  0
    9.8273   -3.2608   10.9935 H   0  0  0  0  0  0  0  0  0  0  0  0
    8.2767   -4.0702   11.3235 H   0  0  0  0  0  0  0  0  0  0  0  0
    8.9453   -2.5570    7.3852 H   0  0  0  0  0  0  0  0  0  0  0  0
   10.2144   -2.2829    8.6028 H   0  0  0  0  0  0  0  0  0  0  0  0
    9.8695   -3.9335    8.0329 H   0  0  0  0  0  0  0  0  0  0  0  0
    8.8009   -0.8943   10.3450 O   0  5  0  0  0  0  0  0  0  0  0  0
  1  2  1  0  0  0  0
  1 31  1  0  0  0  0
  1 32  1  0  0  0  0
  1 33  1  0  0  0  0
  2  3  1  0  0  0  0
  2  4  1  0  0  0  0
  2  5  1  0  0  0  0
  3 34  1  0  0  0  0
  3 35  1  0  0  0  0
  3 36  1  0  0  0  0
  4 37  1  0  0  0  0
  4 38  1  0  0  0  0
  4 39  1  0  0  0  0
  5 10  2  0  0  0  0
  5  6  1  0  0  0  0
  6  7  2  0  0  0  0
  6 40  1  0  0  0  0
  7  8  1  0  0  0  0
  7 16  1  0  0  0  0
  8  9  2  0  0  0  0
  8 41  1  0  0  0  0
  9 10  1  0  0  0  0
  9 12  1  0  0  0  0
 10 11  1  0  0  0  0
 11 42  1  0  0  0  0
 12 13  1  0  0  0  0
 12 14  1  0  0  0  0
 12 15  1  0  0  0  0
 13 43  1  0  0  0  0
 13 44  1  0  0  0  0
 13 45  1  0  0  0  0
 14 46  1  0  0  0  0
 14 47  1  0  0  0  0
 14 48  1  0  0  0  0
 15 49  1  0  0  0  0
 15 50  1  0  0  0  0
 15 51  1  0  0  0  0
 16 17  1  0  0  0  0
 17 18  1  0  0  0  0
 17 52  1  0  0  0  0
 17 53  1  0  0  0  0
 18 19  1  0  0  0  0
 18 54  1  0  0  0  0
 18 55  1  0  0  0  0
 19 24  2  0  0  0  0
 19 20  1  0  0  0  0
 20 21  2  0  0  0  0
 20 56  1  0  0  0  0
 21 22  1  0  0  0  0
 21 57  1  0  0  0  0
 22 23  2  0  0  0  0
 22 25  1  0  0  0  0
 23 24  1  0  0  0  0
 23 58  1  0  0  0  0
 24 59  1  0  0  0  0
 25 26  1  0  0  0  0
 26 27  1  0  0  0  0
 26 28  1  0  0  0  0
 26 29  1  0  0  0  0
 27 60  1  0  0  0  0
 27 61  1  0  0  0  0
 27 62  1  0  0  0  0
 28 63  1  0  0  0  0
 28 64  1  0  0  0  0
 28 65  1  0  0  0  0
 29 30  2  0  0  0  0
 29 66  1  0  0  0  0
M  CHG  1  66  -1
M  END
$$$$
ZINC01540632
  -OEChem-08230709463D

 55 58  0     0  0  0  0  0  0999 V2000
   -5.5733    5.6115   -6.1524 C   0  0  0  0  0  0  0  0  0  0  0  0
   -6.7578    5.0244   -5.3823 C   0  0  0  0  0  0  0  0  0  0  0  0
   -7.2386    3.7575   -6.0871 C   0  0  0  0  0  0  0  0  0  0  0  0
   -8.2750    3.0693   -5.1910 C   0  0  0  0  0  0  0  0  0  0  0  0
   -7.5550    2.5029   -3.9689 C   0  0  0  0  0  0  0  0  0  0  0  0
   -6.7004    3.5603   -3.3204 C   0  0  0  0  0  0  0  0  0  0  0  0
   -6.3291    4.7154   -3.9717 C   0  0  0  0  0  0  0  0  0  0  0  0
   -5.5316    5.6466   -3.3195 C   0  0  0  0  0  0  0  0  0  0  0  0
   -5.1163    5.4278   -2.0220 C   0  0  0  0  0  0  0  0  0  0  0  0
   -5.4874    4.2674   -1.3690 C   0  0  0  0  0  0  0  0  0  0  0  0
   -6.2775    3.3398   -2.0162 C   0  0  0  0  0  0  0  0  0  0  0  0
   -5.0357    4.0193    0.0471 C   0  0  0  0  0  0  0  0  0  0  0  0
   -4.8815    5.2754    0.7289 O   0  0  0  0  0  0  0  0  0  0  0  0
   -6.1334    5.4730    1.4288 C   0  0  0  0  0  0  0  0  0  0  0  0
   -6.4912    4.0253    1.8485 C   0  0  0  0  0  0  0  0  0  0  0  0
   -6.0199    3.2374    0.7366 O   0  0  0  0  0  0  0  0  0  0  0  0
   -3.7205    3.2836    0.0374 C   0  0  0  0  0  0  0  0  0  0  0  0
   -3.7054    1.9000    0.0299 C   0  0  0  0  0  0  0  0  0  0  0  0
   -2.5051    1.2203    0.0206 C   0  0  0  0  0  0  0  0  0  0  0  0
   -1.3036    1.9317    0.0187 C   0  0  0  0  0  0  0  0  0  0  0  0
   -1.3262    3.3277    0.0322 C   0  0  0  0  0  0  0  0  0  0  0  0
   -2.5336    3.9948    0.0357 C   0  0  0  0  0  0  0  0  0  0  0  0
   -0.0144    1.2105    0.0087 C   0  0  0  0  0  0  0  0  0  0  0  0
    0.0021   -0.0041    0.0020 O   0  0  0  0  0  0  0  0  0  0  0  0
   -6.6685    1.3337   -4.4026 C   0  0  0  0  0  0  0  0  0  0  0  0
   -8.5907    2.0025   -2.9601 C   0  0  0  0  0  0  0  0  0  0  0  0
   -7.8956    6.0468   -5.3506 C   0  0  0  0  0  0  0  0  0  0  0  0
   -5.8849    5.8546   -7.1683 H   0  0  0  0  0  0  0  0  0  0  0  0
   -5.2272    6.5161   -5.6523 H   0  0  0  0  0  0  0  0  0  0  0  0
   -4.7639    4.8823   -6.1853 H   0  0  0  0  0  0  0  0  0  0  0  0
   -6.3951    3.0877   -6.2541 H   0  0  0  0  0  0  0  0  0  0  0  0
   -7.6946    4.0186   -7.0421 H   0  0  0  0  0  0  0  0  0  0  0  0
   -8.7566    2.2607   -5.7409 H   0  0  0  0  0  0  0  0  0  0  0  0
   -9.0245    3.7937   -4.8724 H   0  0  0  0  0  0  0  0  0  0  0  0
   -5.2372    6.5512   -3.8307 H   0  0  0  0  0  0  0  0  0  0  0  0
   -4.5000    6.1588   -1.5199 H   0  0  0  0  0  0  0  0  0  0  0  0
   -6.5692    2.4346   -1.5044 H   0  0  0  0  0  0  0  0  0  0  0  0
   -6.8918    5.8850    0.7631 H   0  0  0  0  0  0  0  0  0  0  0  0
   -5.9964    6.1100    2.3026 H   0  0  0  0  0  0  0  0  0  0  0  0
   -7.5687    3.9146    1.9698 H   0  0  0  0  0  0  0  0  0  0  0  0
   -5.9711    3.7476    2.7653 H   0  0  0  0  0  0  0  0  0  0  0  0
   -4.6355    1.3511    0.0310 H   0  0  0  0  0  0  0  0  0  0  0  0
   -2.4947    0.1404    0.0150 H   0  0  0  0  0  0  0  0  0  0  0  0
   -0.4005    3.8840    0.0353 H   0  0  0  0  0  0  0  0  0  0  0  0
   -2.5525    5.0746    0.0420 H   0  0  0  0  0  0  0  0  0  0  0  0
   -6.1678    0.9142   -3.5300 H   0  0  0  0  0  0  0  0  0  0  0  0
   -7.2835    0.5662   -4.8725 H   0  0  0  0  0  0  0  0  0  0  0  0
   -5.9226    1.6877   -5.1143 H   0  0  0  0  0  0  0  0  0  0  0  0
   -9.2184    2.8344   -2.6409 H   0  0  0  0  0  0  0  0  0  0  0  0
   -9.2112    1.2369   -3.4258 H   0  0  0  0  0  0  0  0  0  0  0  0
   -8.0802    1.5796   -2.0948 H   0  0  0  0  0  0  0  0  0  0  0  0
   -8.7450    5.6284   -4.8107 H   0  0  0  0  0  0  0  0  0  0  0  0
   -7.5562    6.9526   -4.8481 H   0  0  0  0  0  0  0  0  0  0  0  0
   -8.1961    6.2877   -6.3702 H   0  0  0  0  0  0  0  0  0  0  0  0
    1.1429    1.8999    0.0013 O   0  5  0  0  0  0  0  0  0  0  0  0
  1  2  1  0  0  0  0
  1 28  1  0  0  0  0
  1 29  1  0  0  0  0
  1 30  1  0  0  0  0
  2  7  1  0  0  0  0
  2  3  1  0  0  0  0
  2 27  1  0  0  0  0
  3  4  1  0  0  0  0
  3 31  1  0  0  0  0
  3 32  1  0  0  0  0
  4  5  1  0  0  0  0
  4 33  1  0  0  0  0
  4 34  1  0  0  0  0
  5  6  1  0  0  0  0
  5 25  1  0  0  0  0
  5 26  1  0  0  0  0
  6 11  2  0  0  0  0
  6  7  1  0  0  0  0
  7  8  2  0  0  0  0
  8  9  1  0  0  0  0
  8 35  1  0  0  0  0
  9 10  2  0  0  0  0
  9 36  1  0  0  0  0
 10 11  1  0  0  0  0
 10 12  1  0  0  0  0
 11 37  1  0  0  0  0
 12 16  1  0  0  0  0
 12 13  1  0  0  0  0
 12 17  1  0  0  0  0
 13 14  1  0  0  0  0
 14 15  1  0  0  0  0
 14 38  1  0  0  0  0
 14 39  1  0  0  0  0
 15 16  1  0  0  0  0
 15 40  1  0  0  0  0
 15 41  1  0  0  0  0
 17 22  2  0  0  0  0
 17 18  1  0  0  0  0
 18 19  2  0  0  0  0
 18 42  1  0  0  0  0
 19 20  1  0  0  0  0
 19 43  1  0  0  0  0
 20 21  2  0  0  0  0
 20 23  1  0  0  0  0
 21 22  1  0  0  0  0
 21 44  1  0  0  0  0
 22 45  1  0  0  0  0
 23 24  2  0  0  0  0
 23 55  1  0  0  0  0
 25 46  1  0  0  0  0
 25 47  1  0  0  0  0
 25 48  1  0  0  0  0
 26 49  1  0  0  0  0
 26 50  1  0  0  0  0
 26 51  1  0  0  0  0
 27 52  1  0  0  0  0
 27 53  1  0  0  0  0
 27 54  1  0  0  0  0
M  CHG  1  55  -1
M  END
$$$$
ZINC01540769
  -OEChem-08230709463D

 54 56  0     0  0  0  0  0  0999 V2000
    4.6943   -4.2221   -0.4091 C   0  0  0  0  0  0  0  0  0  0  0  0
    4.9513   -2.7372   -0.1448 C   0  0  0  0  0  0  0  0  0  0  0  0
    5.9223   -2.1929   -1.1946 C   0  0  0  0  0  0  0  0  0  0  0  0
    5.5582   -2.5648    1.2491 C   0  0  0  0  0  0  0  0  0  0  0  0
    3.6505   -1.9804   -0.2235 C   0  0  0  0  0  0  0  0  0  0  0  0
    2.6192   -2.5707   -0.4669 O   0  0  0  0  0  0  0  0  0  0  0  0
    3.6330   -0.6477   -0.0233 N   0  0  0  0  0  0  0  0  0  0  0  0
    2.4145    0.0464   -0.0299 C   0  0  0  0  0  0  0  0  0  0  0  0
    2.3536    1.3457   -0.5276 C   0  0  0  0  0  0  0  0  0  0  0  0
    1.1465    2.0268   -0.5326 C   0  0  0  0  0  0  0  0  0  0  0  0
    0.0057    1.4174   -0.0441 C   0  0  0  0  0  0  0  0  0  0  0  0
    0.0638    0.1278    0.4509 C   0  0  0  0  0  0  0  0  0  0  0  0
    1.2650   -0.5600    0.4594 C   0  0  0  0  0  0  0  0  0  0  0  0
    1.3188   -1.8204    0.9428 F   0  0  0  0  0  0  0  0  0  0  0  0
    3.4756    1.9444   -1.0084 O   0  0  0  0  0  0  0  0  0  0  0  0
    3.3935    3.2490   -1.3793 C   0  0  0  0  0  0  0  0  0  0  0  0
    3.3378    3.5871   -2.7240 C   0  0  0  0  0  0  0  0  0  0  0  0
    3.2490    4.9138   -3.0982 C   0  0  0  0  0  0  0  0  0  0  0  0
    3.2267    5.9052   -2.1345 C   0  0  0  0  0  0  0  0  0  0  0  0
    3.2874    5.5713   -0.7941 C   0  0  0  0  0  0  0  0  0  0  0  0
    3.3709    4.2459   -0.4143 C   0  0  0  0  0  0  0  0  0  0  0  0
    3.1356    7.3521   -2.5459 C   0  0  0  0  0  0  0  0  0  0  0  0
    4.2188    8.1769   -1.8205 C   0  0  0  0  0  0  0  0  0  0  0  0
    3.5258    9.5278   -1.5140 C   0  0  0  0  0  0  0  0  0  0  0  0
    2.0835    9.0970   -1.1487 C   0  0  0  0  0  0  0  0  0  0  0  0
    1.7780    7.9371   -2.1188 C   0  0  0  0  0  0  0  0  0  0  0  0
    3.3045    7.4756   -4.0383 C   0  0  0  0  0  0  0  0  0  0  0  0
    2.4269    7.9685   -4.7068 O   0  0  0  0  0  0  0  0  0  0  0  0
    4.2620   -4.3449   -1.4021 H   0  0  0  0  0  0  0  0  0  0  0  0
    5.6352   -4.7695   -0.3522 H   0  0  0  0  0  0  0  0  0  0  0  0
    4.0026   -4.6098    0.3388 H   0  0  0  0  0  0  0  0  0  0  0  0
    6.1054   -1.1351   -1.0063 H   0  0  0  0  0  0  0  0  0  0  0  0
    6.8631   -2.7403   -1.1377 H   0  0  0  0  0  0  0  0  0  0  0  0
    5.4899   -2.3157   -2.1876 H   0  0  0  0  0  0  0  0  0  0  0  0
    4.8665   -2.9525    1.9970 H   0  0  0  0  0  0  0  0  0  0  0  0
    6.4991   -3.1122    1.3060 H   0  0  0  0  0  0  0  0  0  0  0  0
    5.7413   -1.5069    1.4374 H   0  0  0  0  0  0  0  0  0  0  0  0
    4.4633   -0.1687    0.1254 H   0  0  0  0  0  0  0  0  0  0  0  0
    1.0970    3.0342   -0.9187 H   0  0  0  0  0  0  0  0  0  0  0  0
   -0.9345    1.9487   -0.0533 H   0  0  0  0  0  0  0  0  0  0  0  0
   -0.8300   -0.3440    0.8314 H   0  0  0  0  0  0  0  0  0  0  0  0
    3.3600    2.8134   -3.4771 H   0  0  0  0  0  0  0  0  0  0  0  0
    3.2012    5.1772   -4.1444 H   0  0  0  0  0  0  0  0  0  0  0  0
    3.2698    6.3476   -0.0434 H   0  0  0  0  0  0  0  0  0  0  0  0
    3.4183    3.9856    0.6328 H   0  0  0  0  0  0  0  0  0  0  0  0
    4.5186    7.6836   -0.8959 H   0  0  0  0  0  0  0  0  0  0  0  0
    5.0810    8.3292   -2.4697 H   0  0  0  0  0  0  0  0  0  0  0  0
    3.5256   10.1704   -2.3945 H   0  0  0  0  0  0  0  0  0  0  0  0
    4.0054   10.0256   -0.6712 H   0  0  0  0  0  0  0  0  0  0  0  0
    1.3875    9.9206   -1.3077 H   0  0  0  0  0  0  0  0  0  0  0  0
    2.0385    8.7522   -0.1157 H   0  0  0  0  0  0  0  0  0  0  0  0
    1.2416    8.3111   -2.9909 H   0  0  0  0  0  0  0  0  0  0  0  0
    1.1847    7.1742   -1.6147 H   0  0  0  0  0  0  0  0  0  0  0  0
    4.4297    7.0381   -4.6250 O   0  5  0  0  0  0  0  0  0  0  0  0
  1  2  1  0  0  0  0
  1 29  1  0  0  0  0
  1 30  1  0  0  0  0
  1 31  1  0  0  0  0
  2  3  1  0  0  0  0
  2  4  1  0  0  0  0
  2  5  1  0  0  0  0
  3 32  1  0  0  0  0
  3 33  1  0  0  0  0
  3 34  1  0  0  0  0
  4 35  1  0  0  0  0
  4 36  1  0  0  0  0
  4 37  1  0  0  0  0
  5  6  2  0  0  0  0
  5  7  1  0  0  0  0
  7  8  1  0  0  0  0
  7 38  1  0  0  0  0
  8 13  2  0  0  0  0
  8  9  1  0  0  0  0
  9 10  2  0  0  0  0
  9 15  1  0  0  0  0
 10 11  1  0  0  0  0
 10 39  1  0  0  0  0
 11 12  2  0  0  0  0
 11 40  1  0  0  0  0
 12 13  1  0  0  0  0
 12 41  1  0  0  0  0
 13 14  1  0  0  0  0
 15 16  1  0  0  0  0
 16 21  2  0  0  0  0
 16 17  1  0  0  0  0
 17 18  2  0  0  0  0
 17 42  1  0  0  0  0
 18 19  1  0  0  0  0
 18 43  1  0  0  0  0
 19 20  2  0  0  0  0
 19 22  1  0  0  0  0
 20 21  1  0  0  0  0
 20 44  1  0  0  0  0
 21 45  1  0  0  0  0
 22 26  1  0  0  0  0
 22 23  1  0  0  0  0
 22 27  1  0  0  0  0
 23 24  1  0  0  0  0
 23 46  1  0  0  0  0
 23 47  1  0  0  0  0
 24 25  1  0  0  0  0
 24 48  1  0  0  0  0
 24 49  1  0  0  0  0
 25 26  1  0  0  0  0
 25 50  1  0  0  0  0
 25 51  1  0  0  0  0
 26 52  1  0  0  0  0
 26 53  1  0  0  0  0
 27 28  2  0  0  0  0
 27 54  1  0  0  0  0
M  CHG  1  54  -1
M  END
$$$$
ZINC01543955
  -OEChem-08230709463D

 52 53  0     0  0  0  0  0  0999 V2000
   -0.8376    3.3362   -0.0680 C   0  0  0  0  0  0  0  0  0  0  0  0
   -1.0467    1.8473    0.0342 C   0  0  0  0  0  0  0  0  0  0  0  0
   -0.0122    0.9956   -0.2120 C   0  0  0  0  0  0  0  0  0  0  0  0
    1.2090    1.4950   -0.7110 C   0  0  0  0  0  0  0  0  0  0  0  0
    1.3038    2.6669   -1.0269 O   0  0  0  0  0  0  0  0  0  0  0  0
   -2.3083    1.3375    0.3833 C   0  0  0  0  0  0  0  0  0  0  0  0
   -3.3429    2.1892    0.6295 C   0  0  0  0  0  0  0  0  0  0  0  0
   -4.6074    1.6782    0.9794 C   0  0  0  0  0  0  0  0  0  0  0  0
   -5.6368    2.5256    1.2244 C   0  0  0  0  0  0  0  0  0  0  0  0
   -5.4277    4.0145    1.1222 C   0  0  0  0  0  0  0  0  0  0  0  0
   -6.9555    1.9928    1.5893 C   0  0  0  0  0  0  0  0  0  0  0  0
   -7.6860    1.2321    0.6673 C   0  0  0  0  0  0  0  0  0  0  0  0
   -8.9195    0.7311    1.0165 C   0  0  0  0  0  0  0  0  0  0  0  0
   -9.4453    0.9876    2.2779 C   0  0  0  0  0  0  0  0  0  0  0  0
   -8.7271    1.7462    3.1949 C   0  0  0  0  0  0  0  0  0  0  0  0
   -7.4900    2.2480    2.8583 C   0  0  0  0  0  0  0  0  0  0  0  0
   -9.3039    2.0204    4.5599 C   0  0  0  0  0  0  0  0  0  0  0  0
   -9.5480    0.6959    5.2858 C   0  0  0  0  0  0  0  0  0  0  0  0
  -10.1336    0.9742    6.6716 C   0  0  0  0  0  0  0  0  0  0  0  0
  -11.4577    1.7265    6.5240 C   0  0  0  0  0  0  0  0  0  0  0  0
  -11.2136    3.0510    5.7981 C   0  0  0  0  0  0  0  0  0  0  0  0
  -10.6280    2.7727    4.4123 C   0  0  0  0  0  0  0  0  0  0  0  0
   -8.3213    2.8710    5.3673 C   0  0  0  0  0  0  0  0  0  0  0  0
  -10.6646    0.4949    2.6153 O   0  0  0  0  0  0  0  0  0  0  0  0
   -0.9554    3.6493   -1.1054 H   0  0  0  0  0  0  0  0  0  0  0  0
   -1.5724    3.8497    0.5521 H   0  0  0  0  0  0  0  0  0  0  0  0
    0.1661    3.5866    0.2754 H   0  0  0  0  0  0  0  0  0  0  0  0
   -0.1286   -0.0624   -0.0293 H   0  0  0  0  0  0  0  0  0  0  0  0
   -2.4581    0.2704    0.4565 H   0  0  0  0  0  0  0  0  0  0  0  0
   -3.1931    3.2563    0.5563 H   0  0  0  0  0  0  0  0  0  0  0  0
   -4.7572    0.6112    1.0527 H   0  0  0  0  0  0  0  0  0  0  0  0
   -5.6395    4.3422    0.1044 H   0  0  0  0  0  0  0  0  0  0  0  0
   -6.0978    4.5239    1.8147 H   0  0  0  0  0  0  0  0  0  0  0  0
   -4.3946    4.2545    1.3736 H   0  0  0  0  0  0  0  0  0  0  0  0
   -7.2803    1.0357   -0.3141 H   0  0  0  0  0  0  0  0  0  0  0  0
   -9.4818    0.1410    0.3079 H   0  0  0  0  0  0  0  0  0  0  0  0
   -6.9327    2.8370    3.5717 H   0  0  0  0  0  0  0  0  0  0  0  0
  -10.2480    0.0899    4.7106 H   0  0  0  0  0  0  0  0  0  0  0  0
   -8.6047    0.1599    5.3909 H   0  0  0  0  0  0  0  0  0  0  0  0
   -9.4336    1.5802    7.2468 H   0  0  0  0  0  0  0  0  0  0  0  0
  -10.3075    0.0306    7.1888 H   0  0  0  0  0  0  0  0  0  0  0  0
  -11.8749    1.9248    7.5113 H   0  0  0  0  0  0  0  0  0  0  0  0
  -12.1577    1.1206    5.9488 H   0  0  0  0  0  0  0  0  0  0  0  0
  -10.5136    3.6570    6.3733 H   0  0  0  0  0  0  0  0  0  0  0  0
  -12.1569    3.5870    5.6930 H   0  0  0  0  0  0  0  0  0  0  0  0
  -10.4541    3.7163    3.8951 H   0  0  0  0  0  0  0  0  0  0  0  0
  -11.3280    2.1667    3.8371 H   0  0  0  0  0  0  0  0  0  0  0  0
   -8.1474    3.8146    4.8501 H   0  0  0  0  0  0  0  0  0  0  0  0
   -8.7385    3.0693    6.3546 H   0  0  0  0  0  0  0  0  0  0  0  0
   -7.3780    2.3350    5.4724 H   0  0  0  0  0  0  0  0  0  0  0  0
  -11.3999    1.0866    2.4047 H   0  0  0  0  0  0  0  0  0  0  0  0
    2.2729    0.6732   -0.8384 O   0  5  0  0  0  0  0  0  0  0  0  0
  1  2  1  0  0  0  0
  1 25  1  0  0  0  0
  1 26  1  0  0  0  0
  1 27  1  0  0  0  0
  2  3  2  0  0  0  0
  2  6  1  0  0  0  0
  3  4  1  0  0  0  0
  3 28  1  0  0  0  0
  4  5  2  0  0  0  0
  4 52  1  0  0  0  0
  6  7  2  0  0  0  0
  6 29  1  0  0  0  0
  7  8  1  0  0  0  0
  7 30  1  0  0  0  0
  8  9  2  0  0  0  0
  8 31  1  0  0  0  0
  9 10  1  0  0  0  0
  9 11  1  0  0  0  0
 10 32  1  0  0  0  0
 10 33  1  0  0  0  0
 10 34  1  0  0  0  0
 11 16  2  0  0  0  0
 11 12  1  0  0  0  0
 12 13  2  0  0  0  0
 12 35  1  0  0  0  0
 13 14  1  0  0  0  0
 13 36  1  0  0  0  0
 14 15  2  0  0  0  0
 14 24  1  0  0  0  0
 15 16  1  0  0  0  0
 15 17  1  0  0  0  0
 16 37  1  0  0  0  0
 17 22  1  0  0  0  0
 17 18  1  0  0  0  0
 17 23  1  0  0  0  0
 18 19  1  0  0  0  0
 18 38  1  0  0  0  0
 18 39  1  0  0  0  0
 19 20  1  0  0  0  0
 19 40  1  0  0  0  0
 19 41  1  0  0  0  0
 20 21  1  0  0  0  0
 20 42  1  0  0  0  0
 20 43  1  0  0  0  0
 21 22  1  0  0  0  0
 21 44  1  0  0  0  0
 21 45  1  0  0  0  0
 22 46  1  0  0  0  0
 22 47  1  0  0  0  0
 23 48  1  0  0  0  0
 23 49  1  0  0  0  0
 23 50  1  0  0  0  0
 24 51  1  0  0  0  0
M  CHG  1  52  -1
M  END
$$$$
ZINC01545618
  -OEChem-08230709463D

 63 65  0     0  0  0  0  0  0999 V2000
   -6.2732    6.0493   -4.0150 C   0  0  0  0  0  0  0  0  0  0  0  0
   -5.9807    6.5730   -2.6074 C   0  0  0  0  0  0  0  0  0  0  0  0
   -4.6584    7.3426   -2.6142 C   0  0  0  0  0  0  0  0  0  0  0  0
   -4.3659    7.8662   -1.2066 C   0  0  0  0  0  0  0  0  0  0  0  0
   -3.0435    8.6358   -1.2134 C   0  0  0  0  0  0  0  0  0  0  0  0
   -2.7510    9.1594    0.1941 C   0  0  0  0  0  0  0  0  0  0  0  0
   -1.4485    9.9175    0.1875 C   0  0  0  0  0  0  0  0  0  0  0  0
   -1.4519   11.2967    0.1376 C   0  0  0  0  0  0  0  0  0  0  0  0
   -0.2519   11.9890    0.1313 C   0  0  0  0  0  0  0  0  0  0  0  0
    0.9428   11.3146    0.1735 C   0  0  0  0  0  0  0  0  0  0  0  0
    0.9669    9.9353    0.2299 C   0  0  0  0  0  0  0  0  0  0  0  0
   -0.2367    9.2255    0.2313 C   0  0  0  0  0  0  0  0  0  0  0  0
   -0.2270    7.7495    0.2851 C   0  0  0  0  0  0  0  0  0  0  0  0
   -1.2749    7.1351    0.2913 O   0  0  0  0  0  0  0  0  0  0  0  0
    0.9446    7.0842    0.3273 O   0  0  0  0  0  0  0  0  0  0  0  0
    0.8825    5.7308    0.3755 C   0  0  0  0  0  0  0  0  0  0  0  0
    2.0604    4.9917    0.4206 C   0  0  0  0  0  0  0  0  0  0  0  0
    1.9912    3.6145    0.4700 C   0  0  0  0  0  0  0  0  0  0  0  0
    0.7247    3.0108    0.4728 C   0  0  0  0  0  0  0  0  0  0  0  0
   -0.4110    3.8208    0.4205 C   0  0  0  0  0  0  0  0  0  0  0  0
   -0.2982    5.1317    0.3795 N   0  0  0  0  0  0  0  0  0  0  0  0
    0.5953    1.5422    0.5242 C   0  0  0  0  0  0  0  0  0  0  0  0
    1.5900    0.8458    0.5644 O   0  0  0  0  0  0  0  0  0  0  0  0
    2.2492   12.0814    0.1665 C   0  0  0  0  0  0  0  0  0  0  0  0
    2.4456   12.6910   -1.2237 C   0  0  0  0  0  0  0  0  0  0  0  0
    1.7405   14.0284   -1.3334 C   0  0  0  0  0  0  0  0  0  0  0  0
    0.2273   13.9436   -1.3027 C   0  0  0  0  0  0  0  0  0  0  0  0
   -0.2683   13.5029    0.0766 C   0  0  0  0  0  0  0  0  0  0  0  0
   -1.6950   14.0099    0.2965 C   0  0  0  0  0  0  0  0  0  0  0  0
    0.6547   14.0665    1.1589 C   0  0  0  0  0  0  0  0  0  0  0  0
   -7.2153    5.5011   -4.0102 H   0  0  0  0  0  0  0  0  0  0  0  0
   -6.3446    6.8883   -4.7072 H   0  0  0  0  0  0  0  0  0  0  0  0
   -5.4682    5.3856   -4.3303 H   0  0  0  0  0  0  0  0  0  0  0  0
   -5.9093    5.7340   -1.9152 H   0  0  0  0  0  0  0  0  0  0  0  0
   -6.7858    7.2367   -2.2921 H   0  0  0  0  0  0  0  0  0  0  0  0
   -4.7298    8.1815   -3.3064 H   0  0  0  0  0  0  0  0  0  0  0  0
   -3.8533    6.6788   -2.9295 H   0  0  0  0  0  0  0  0  0  0  0  0
   -4.2945    7.0273   -0.5144 H   0  0  0  0  0  0  0  0  0  0  0  0
   -5.1709    8.5299   -0.8913 H   0  0  0  0  0  0  0  0  0  0  0  0
   -3.1149    9.4747   -1.9056 H   0  0  0  0  0  0  0  0  0  0  0  0
   -2.2385    7.9721   -1.5287 H   0  0  0  0  0  0  0  0  0  0  0  0
   -2.6796    8.3205    0.8864 H   0  0  0  0  0  0  0  0  0  0  0  0
   -3.5561    9.8232    0.5095 H   0  0  0  0  0  0  0  0  0  0  0  0
   -2.3876   11.8349    0.1040 H   0  0  0  0  0  0  0  0  0  0  0  0
    1.9090    9.4087    0.2682 H   0  0  0  0  0  0  0  0  0  0  0  0
    3.0184    5.4905    0.4172 H   0  0  0  0  0  0  0  0  0  0  0  0
    2.8896    3.0161    0.5052 H   0  0  0  0  0  0  0  0  0  0  0  0
   -1.3914    3.3679    0.4176 H   0  0  0  0  0  0  0  0  0  0  0  0
    3.0732   11.4034    0.3889 H   0  0  0  0  0  0  0  0  0  0  0  0
    2.2161   12.8749    0.9130 H   0  0  0  0  0  0  0  0  0  0  0  0
    2.0418   12.0106   -1.9734 H   0  0  0  0  0  0  0  0  0  0  0  0
    3.5112   12.8319   -1.4049 H   0  0  0  0  0  0  0  0  0  0  0  0
    2.0413   14.5022   -2.2679 H   0  0  0  0  0  0  0  0  0  0  0  0
    2.0684   14.6585   -0.5066 H   0  0  0  0  0  0  0  0  0  0  0  0
   -0.1063   13.2237   -2.0500 H   0  0  0  0  0  0  0  0  0  0  0  0
   -0.1904   14.9227   -1.5373 H   0  0  0  0  0  0  0  0  0  0  0  0
   -2.0518   13.6792    1.2719 H   0  0  0  0  0  0  0  0  0  0  0  0
   -1.7037   15.0992    0.2567 H   0  0  0  0  0  0  0  0  0  0  0  0
   -2.3459   13.6127   -0.4823 H   0  0  0  0  0  0  0  0  0  0  0  0
    1.6638   14.1673    0.7594 H   0  0  0  0  0  0  0  0  0  0  0  0
    0.2897   15.0438    1.4748 H   0  0  0  0  0  0  0  0  0  0  0  0
    0.6681   13.3900    2.0134 H   0  0  0  0  0  0  0  0  0  0  0  0
   -0.6260    0.9732    0.5264 O   0  5  0  0  0  0  0  0  0  0  0  0
  1  2  1  0  0  0  0
  1 31  1  0  0  0  0
  1 32  1  0  0  0  0
  1 33  1  0  0  0  0
  2  3  1  0  0  0  0
  2 34  1  0  0  0  0
  2 35  1  0  0  0  0
  3  4  1  0  0  0  0
  3 36  1  0  0  0  0
  3 37  1  0  0  0  0
  4  5  1  0  0  0  0
  4 38  1  0  0  0  0
  4 39  1  0  0  0  0
  5  6  1  0  0  0  0
  5 40  1  0  0  0  0
  5 41  1  0  0  0  0
  6  7  1  0  0  0  0
  6 42  1  0  0  0  0
  6 43  1  0  0  0  0
  7 12  2  0  0  0  0
  7  8  1  0  0  0  0
  8  9  2  0  0  0  0
  8 44  1  0  0  0  0
  9 28  1  0  0  0  0
  9 10  1  0  0  0  0
 10 11  2  0  0  0  0
 10 24  1  0  0  0  0
 11 12  1  0  0  0  0
 11 45  1  0  0  0  0
 12 13  1  0  0  0  0
 13 14  2  0  0  0  0
 13 15  1  0  0  0  0
 15 16  1  0  0  0  0
 16 21  2  0  0  0  0
 16 17  1  0  0  0  0
 17 18  2  0  0  0  0
 17 46  1  0  0  0  0
 18 19  1  0  0  0  0
 18 47  1  0  0  0  0
 19 20  2  0  0  0  0
 19 22  1  0  0  0  0
 20 21  1  0  0  0  0
 20 48  1  0  0  0  0
 22 23  2  0  0  0  0
 22 63  1  0  0  0  0
 24 25  1  0  0  0  0
 24 49  1  0  0  0  0
 24 50  1  0  0  0  0
 25 26  1  0  0  0  0
 25 51  1  0  0  0  0
 25 52  1  0  0  0  0
 26 27  1  0  0  0  0
 26 53  1  0  0  0  0
 26 54  1  0  0  0  0
 27 28  1  0  0  0  0
 27 55  1  0  0  0  0
 27 56  1  0  0  0  0
 28 29  1  0  0  0  0
 28 30  1  0  0  0  0
 29 57  1  0  0  0  0
 29 58  1  0  0  0  0
 29 59  1  0  0  0  0
 30 60  1  0  0  0  0
 30 61  1  0  0  0  0
 30 62  1  0  0  0  0
M  CHG  1  63  -1
M  END
$$$$
ZINC01545619
  -OEChem-08230709463D

 57 59  0     0  0  0  0  0  0999 V2000
   -6.7063    6.5177    3.8464 C   0  0  0  0  0  0  0  0  0  0  0  0
   -6.1678    6.8075    2.4439 C   0  0  0  0  0  0  0  0  0  0  0  0
   -4.8868    7.6373    2.5508 C   0  0  0  0  0  0  0  0  0  0  0  0
   -4.3483    7.9271    1.1484 C   0  0  0  0  0  0  0  0  0  0  0  0
   -3.0674    8.7570    1.2553 C   0  0  0  0  0  0  0  0  0  0  0  0
   -2.5289    9.0468   -0.1471 C   0  0  0  0  0  0  0  0  0  0  0  0
   -1.2672    9.8642   -0.0418 C   0  0  0  0  0  0  0  0  0  0  0  0
   -1.3134   11.2316   -0.2079 C   0  0  0  0  0  0  0  0  0  0  0  0
   -0.1566   11.9898   -0.1123 C   0  0  0  0  0  0  0  0  0  0  0  0
    1.0557   11.3759    0.1518 C   0  0  0  0  0  0  0  0  0  0  0  0
    1.1132   10.0064    0.3264 C   0  0  0  0  0  0  0  0  0  0  0  0
   -0.0477    9.2388    0.2249 C   0  0  0  0  0  0  0  0  0  0  0  0
    0.0123    7.7740    0.4045 C   0  0  0  0  0  0  0  0  0  0  0  0
   -1.0119    7.1210    0.4151 O   0  0  0  0  0  0  0  0  0  0  0  0
    1.2036    7.1619    0.5565 O   0  0  0  0  0  0  0  0  0  0  0  0
    1.1878    5.8158    0.7169 C   0  0  0  0  0  0  0  0  0  0  0  0
    2.3879    5.1306    0.8783 C   0  0  0  0  0  0  0  0  0  0  0  0
    2.3659    3.7605    1.0406 C   0  0  0  0  0  0  0  0  0  0  0  0
    1.1233    3.1090    1.0362 C   0  0  0  0  0  0  0  0  0  0  0  0
   -0.0368    3.8659    0.8635 C   0  0  0  0  0  0  0  0  0  0  0  0
    0.0307    5.1724    0.7172 N   0  0  0  0  0  0  0  0  0  0  0  0
    1.0445    1.6457    1.2055 C   0  0  0  0  0  0  0  0  0  0  0  0
    2.0604    0.9952    1.3501 O   0  0  0  0  0  0  0  0  0  0  0  0
    2.1544   12.4161    0.2058 C   0  0  0  0  0  0  0  0  0  0  0  0
    1.5632   13.6644   -0.4828 C   0  0  0  0  0  0  0  0  0  0  0  0
    0.0478   13.4835   -0.2533 C   0  0  0  0  0  0  0  0  0  0  0  0
    3.3882   11.9250   -0.5541 C   0  0  0  0  0  0  0  0  0  0  0  0
    2.5154   12.7321    1.6586 C   0  0  0  0  0  0  0  0  0  0  0  0
   -7.6188    5.9265    3.7702 H   0  0  0  0  0  0  0  0  0  0  0  0
   -5.9600    5.9624    4.4145 H   0  0  0  0  0  0  0  0  0  0  0  0
   -6.9236    7.4577    4.3535 H   0  0  0  0  0  0  0  0  0  0  0  0
   -6.9140    7.3627    1.8757 H   0  0  0  0  0  0  0  0  0  0  0  0
   -5.9504    5.8674    1.9367 H   0  0  0  0  0  0  0  0  0  0  0  0
   -4.1405    7.0820    3.1190 H   0  0  0  0  0  0  0  0  0  0  0  0
   -5.1042    8.5774    3.0580 H   0  0  0  0  0  0  0  0  0  0  0  0
   -5.0946    8.4824    0.5802 H   0  0  0  0  0  0  0  0  0  0  0  0
   -4.1310    6.9871    0.6412 H   0  0  0  0  0  0  0  0  0  0  0  0
   -2.3211    8.2017    1.8235 H   0  0  0  0  0  0  0  0  0  0  0  0
   -3.2847    9.6970    1.7625 H   0  0  0  0  0  0  0  0  0  0  0  0
   -3.2752    9.6021   -0.7153 H   0  0  0  0  0  0  0  0  0  0  0  0
   -2.3115    8.1068   -0.6543 H   0  0  0  0  0  0  0  0  0  0  0  0
   -2.2566   11.7156   -0.4142 H   0  0  0  0  0  0  0  0  0  0  0  0
    2.0587    9.5289    0.5369 H   0  0  0  0  0  0  0  0  0  0  0  0
    3.3263    5.6652    0.8769 H   0  0  0  0  0  0  0  0  0  0  0  0
    3.2824    3.2035    1.1676 H   0  0  0  0  0  0  0  0  0  0  0  0
   -0.9989    3.3754    0.8538 H   0  0  0  0  0  0  0  0  0  0  0  0
    1.7962   13.6663   -1.5476 H   0  0  0  0  0  0  0  0  0  0  0  0
    1.9212   14.5764   -0.0052 H   0  0  0  0  0  0  0  0  0  0  0  0
   -0.5121   13.8629   -1.1081 H   0  0  0  0  0  0  0  0  0  0  0  0
   -0.2603   13.9951    0.6586 H   0  0  0  0  0  0  0  0  0  0  0  0
    4.1516   12.7030   -0.5490 H   0  0  0  0  0  0  0  0  0  0  0  0
    3.7792   11.0291   -0.0718 H   0  0  0  0  0  0  0  0  0  0  0  0
    3.1128   11.6929   -1.5829 H   0  0  0  0  0  0  0  0  0  0  0  0
    1.6248   13.0690    2.1892 H   0  0  0  0  0  0  0  0  0  0  0  0
    2.9072   11.8355    2.1389 H   0  0  0  0  0  0  0  0  0  0  0  0
    3.2713   13.5171    1.6827 H   0  0  0  0  0  0  0  0  0  0  0  0
   -0.1542    1.0304    1.1996 O   0  5  0  0  0  0  0  0  0  0  0  0
  1  2  1  0  0  0  0
  1 29  1  0  0  0  0
  1 30  1  0  0  0  0
  1 31  1  0  0  0  0
  2  3  1  0  0  0  0
  2 32  1  0  0  0  0
  2 33  1  0  0  0  0
  3  4  1  0  0  0  0
  3 34  1  0  0  0  0
  3 35  1  0  0  0  0
  4  5  1  0  0  0  0
  4 36  1  0  0  0  0
  4 37  1  0  0  0  0
  5  6  1  0  0  0  0
  5 38  1  0  0  0  0
  5 39  1  0  0  0  0
  6  7  1  0  0  0  0
  6 40  1  0  0  0  0
  6 41  1  0  0  0  0
  7 12  2  0  0  0  0
  7  8  1  0  0  0  0
  8  9  2  0  0  0  0
  8 42  1  0  0  0  0
  9 26  1  0  0  0  0
  9 10  1  0  0  0  0
 10 11  2  0  0  0  0
 10 24  1  0  0  0  0
 11 12  1  0  0  0  0
 11 43  1  0  0  0  0
 12 13  1  0  0  0  0
 13 14  2  0  0  0  0
 13 15  1  0  0  0  0
 15 16  1  0  0  0  0
 16 21  2  0  0  0  0
 16 17  1  0  0  0  0
 17 18  2  0  0  0  0
 17 44  1  0  0  0  0
 18 19  1  0  0  0  0
 18 45  1  0  0  0  0
 19 20  2  0  0  0  0
 19 22  1  0  0  0  0
 20 21  1  0  0  0  0
 20 46  1  0  0  0  0
 22 23  2  0  0  0  0
 22 57  1  0  0  0  0
 24 25  1  0  0  0  0
 24 27  1  0  0  0  0
 24 28  1  0  0  0  0
 25 26  1  0  0  0  0
 25 47  1  0  0  0  0
 25 48  1  0  0  0  0
 26 49  1  0  0  0  0
 26 50  1  0  0  0  0
 27 51  1  0  0  0  0
 27 52  1  0  0  0  0
 27 53  1  0  0  0  0
 28 54  1  0  0  0  0
 28 55  1  0  0  0  0
 28 56  1  0  0  0  0
M  CHG  1  57  -1
M  END
$$$$
ZINC01545621
  -OEChem-08230709463D

 61 63  0     0  0  0  0  0  0999 V2000
   -7.3097    8.6622    0.0884 C   0  0  0  0  0  0  0  0  0  0  0  0
   -6.1395    9.6479    0.0850 C   0  0  0  0  0  0  0  0  0  0  0  0
   -4.8202    8.8733    0.0751 C   0  0  0  0  0  0  0  0  0  0  0  0
   -3.6500    9.8590    0.0717 C   0  0  0  0  0  0  0  0  0  0  0  0
   -2.4178    9.1355    0.0625 O   0  0  0  0  0  0  0  0  0  0  0  0
   -1.2748    9.8660    0.0585 C   0  0  0  0  0  0  0  0  0  0  0  0
   -1.3304   11.2487    0.0686 C   0  0  0  0  0  0  0  0  0  0  0  0
   -0.1671   12.0051    0.0597 C   0  0  0  0  0  0  0  0  0  0  0  0
    1.0637   11.3790    0.0503 C   0  0  0  0  0  0  0  0  0  0  0  0
    1.1359    9.9964    0.0424 C   0  0  0  0  0  0  0  0  0  0  0  0
   -0.0271    9.2263    0.0495 C   0  0  0  0  0  0  0  0  0  0  0  0
    0.0548    7.7549    0.0413 C   0  0  0  0  0  0  0  0  0  0  0  0
   -0.9621    7.0898    0.0475 O   0  0  0  0  0  0  0  0  0  0  0  0
    1.2581    7.1467    0.0270 O   0  0  0  0  0  0  0  0  0  0  0  0
    1.2624    5.7911    0.0202 C   0  0  0  0  0  0  0  0  0  0  0  0
    2.4753    5.1095    0.0054 C   0  0  0  0  0  0  0  0  0  0  0  0
    2.4737    3.7297   -0.0015 C   0  0  0  0  0  0  0  0  0  0  0  0
    1.2382    3.0648    0.0067 C   0  0  0  0  0  0  0  0  0  0  0  0
    0.0640    3.8195    0.0161 C   0  0  0  0  0  0  0  0  0  0  0  0
    0.1124    5.1350    0.0272 N   0  0  0  0  0  0  0  0  0  0  0  0
    1.1810    1.5908   -0.0007 C   0  0  0  0  0  0  0  0  0  0  0  0
    2.2088    0.9430   -0.0140 O   0  0  0  0  0  0  0  0  0  0  0  0
    2.3615   12.1446    0.0569 C   0  0  0  0  0  0  0  0  0  0  0  0
    2.1325   13.5946   -0.3642 C   0  0  0  0  0  0  0  0  0  0  0  0
    0.9944   14.1711    0.4862 C   0  0  0  0  0  0  0  0  0  0  0  0
   -0.3115   13.5052    0.0581 C   0  0  0  0  0  0  0  0  0  0  0  0
   -0.6792   13.9751   -1.3508 C   0  0  0  0  0  0  0  0  0  0  0  0
   -1.4240   13.9060    1.0290 C   0  0  0  0  0  0  0  0  0  0  0  0
    2.9566   12.1166    1.4662 C   0  0  0  0  0  0  0  0  0  0  0  0
    3.3409   11.4855   -0.9164 C   0  0  0  0  0  0  0  0  0  0  0  0
   -7.2515    8.0323    0.9760 H   0  0  0  0  0  0  0  0  0  0  0  0
   -8.2496    9.2141    0.0954 H   0  0  0  0  0  0  0  0  0  0  0  0
   -7.2615    8.0380   -0.8039 H   0  0  0  0  0  0  0  0  0  0  0  0
   -6.1877   10.2722    0.9772 H   0  0  0  0  0  0  0  0  0  0  0  0
   -6.1977   10.2778   -0.8027 H   0  0  0  0  0  0  0  0  0  0  0  0
   -4.7720    8.2491   -0.8171 H   0  0  0  0  0  0  0  0  0  0  0  0
   -4.7620    8.2434    0.9628 H   0  0  0  0  0  0  0  0  0  0  0  0
   -3.6982   10.4833    0.9640 H   0  0  0  0  0  0  0  0  0  0  0  0
   -3.7082   10.4889   -0.8159 H   0  0  0  0  0  0  0  0  0  0  0  0
   -2.2898   11.7446    0.0801 H   0  0  0  0  0  0  0  0  0  0  0  0
    2.1002    9.5103    0.0311 H   0  0  0  0  0  0  0  0  0  0  0  0
    3.4077    5.6544   -0.0003 H   0  0  0  0  0  0  0  0  0  0  0  0
    3.4005    3.1753   -0.0133 H   0  0  0  0  0  0  0  0  0  0  0  0
   -0.8933    3.3194    0.0184 H   0  0  0  0  0  0  0  0  0  0  0  0
    1.8581   13.6318   -1.4184 H   0  0  0  0  0  0  0  0  0  0  0  0
    3.0419   14.1728   -0.2009 H   0  0  0  0  0  0  0  0  0  0  0  0
    0.9268   15.2474    0.3279 H   0  0  0  0  0  0  0  0  0  0  0  0
    1.1827   13.9662    1.5401 H   0  0  0  0  0  0  0  0  0  0  0  0
   -1.6213   13.5171   -1.6522 H   0  0  0  0  0  0  0  0  0  0  0  0
   -0.7846   15.0600   -1.3560 H   0  0  0  0  0  0  0  0  0  0  0  0
    0.1062   13.6830   -2.0478 H   0  0  0  0  0  0  0  0  0  0  0  0
   -1.1708   13.5644    2.0327 H   0  0  0  0  0  0  0  0  0  0  0  0
   -1.5316   14.9906    1.0307 H   0  0  0  0  0  0  0  0  0  0  0  0
   -2.3623   13.4483    0.7154 H   0  0  0  0  0  0  0  0  0  0  0  0
    3.1401   11.0838    1.7626 H   0  0  0  0  0  0  0  0  0  0  0  0
    3.8958   12.6695    1.4751 H   0  0  0  0  0  0  0  0  0  0  0  0
    2.2576   12.5764    2.1649 H   0  0  0  0  0  0  0  0  0  0  0  0
    2.9167   11.4942   -1.9204 H   0  0  0  0  0  0  0  0  0  0  0  0
    4.2813   12.0366   -0.9145 H   0  0  0  0  0  0  0  0  0  0  0  0
    3.5225   10.4560   -0.6076 H   0  0  0  0  0  0  0  0  0  0  0  0
   -0.0110    0.9628    0.0073 O   0  5  0  0  0  0  0  0  0  0  0  0
  1  2  1  0  0  0  0
  1 31  1  0  0  0  0
  1 32  1  0  0  0  0
  1 33  1  0  0  0  0
  2  3  1  0  0  0  0
  2 34  1  0  0  0  0
  2 35  1  0  0  0  0
  3  4  1  0  0  0  0
  3 36  1  0  0  0  0
  3 37  1  0  0  0  0
  4  5  1  0  0  0  0
  4 38  1  0  0  0  0
  4 39  1  0  0  0  0
  5  6  1  0  0  0  0
  6 11  2  0  0  0  0
  6  7  1  0  0  0  0
  7  8  2  0  0  0  0
  7 40  1  0  0  0  0
  8 26  1  0  0  0  0
  8  9  1  0  0  0  0
  9 10  2  0  0  0  0
  9 23  1  0  0  0  0
 10 11  1  0  0  0  0
 10 41  1  0  0  0  0
 11 12  1  0  0  0  0
 12 13  2  0  0  0  0
 12 14  1  0  0  0  0
 14 15  1  0  0  0  0
 15 20  2  0  0  0  0
 15 16  1  0  0  0  0
 16 17  2  0  0  0  0
 16 42  1  0  0  0  0
 17 18  1  0  0  0  0
 17 43  1  0  0  0  0
 18 19  2  0  0  0  0
 18 21  1  0  0  0  0
 19 20  1  0  0  0  0
 19 44  1  0  0  0  0
 21 22  2  0  0  0  0
 21 61  1  0  0  0  0
 23 24  1  0  0  0  0
 23 29  1  0  0  0  0
 23 30  1  0  0  0  0
 24 25  1  0  0  0  0
 24 45  1  0  0  0  0
 24 46  1  0  0  0  0
 25 26  1  0  0  0  0
 25 47  1  0  0  0  0
 25 48  1  0  0  0  0
 26 27  1  0  0  0  0
 26 28  1  0  0  0  0
 27 49  1  0  0  0  0
 27 50  1  0  0  0  0
 27 51  1  0  0  0  0
 28 52  1  0  0  0  0
 28 53  1  0  0  0  0
 28 54  1  0  0  0  0
 29 55  1  0  0  0  0
 29 56  1  0  0  0  0
 29 57  1  0  0  0  0
 30 58  1  0  0  0  0
 30 59  1  0  0  0  0
 30 60  1  0  0  0  0
M  CHG  1  61  -1
M  END
$$$$
ZINC01549309
  -OEChem-08230709463D

 62 64  0     1  0  0  0  0  0999 V2000
    1.3867    4.2733    2.8829 C   0  0  0  0  0  0  0  0  0  0  0  0
    2.2591    3.2076    2.2164 C   0  0  0  0  0  0  0  0  0  0  0  0
    2.6821    2.1700    3.2583 C   0  0  0  0  0  0  0  0  0  0  0  0
    1.4639    2.5195    1.1050 C   0  0  0  0  0  0  0  0  0  0  0  0
    1.1615    3.4888    0.0490 N   0  0  0  0  0  0  0  0  0  0  0  0
    2.0460    3.6618   -1.0100 C   0  0  0  0  0  0  0  0  0  0  0  0
    1.6982    4.4846   -2.0783 C   0  0  0  0  0  0  0  0  0  0  0  0
    2.5681    4.6577   -3.1238 C   0  0  0  0  0  0  0  0  0  0  0  0
    3.8060    4.0068   -3.1166 C   0  0  0  0  0  0  0  0  0  0  0  0
    4.1522    3.1811   -2.0421 C   0  0  0  0  0  0  0  0  0  0  0  0
    3.2777    3.0123   -0.9997 C   0  0  0  0  0  0  0  0  0  0  0  0
    4.7433    4.1901   -4.2390 C   0  0  0  0  0  0  0  0  0  0  0  0
    4.4410    4.9075   -5.1721 O   0  0  0  0  0  0  0  0  0  0  0  0
   -0.0156    4.2394    0.1059 C   0  0  0  0  0  0  0  0  0  0  0  0
    0.0416    5.6282    0.0887 C   0  0  0  0  0  0  0  0  0  0  0  0
   -1.1241    6.3630    0.1428 C   0  0  0  0  0  0  0  0  0  0  0  0
   -2.3549    5.7291    0.2254 C   0  0  0  0  0  0  0  0  0  0  0  0
   -2.4210    4.3462    0.2432 C   0  0  0  0  0  0  0  0  0  0  0  0
   -1.2426    3.6022    0.1855 C   0  0  0  0  0  0  0  0  0  0  0  0
   -3.6245    3.6454    0.3073 N   0  0  2  0  0  0  0  0  0  0  0  0
   -4.7338    4.4526    0.8191 C   0  0  0  0  0  0  0  0  0  0  0  0
   -4.8277    5.7395   -0.0102 C   0  0  0  0  0  0  0  0  0  0  0  0
   -3.5922    6.5888    0.2963 C   0  0  0  0  0  0  0  0  0  0  0  0
   -3.7189    7.1840    1.7001 C   0  0  0  0  0  0  0  0  0  0  0  0
   -3.4857    7.7198   -0.7286 C   0  0  0  0  0  0  0  0  0  0  0  0
   -3.4723    2.4076    1.0836 C   0  0  0  0  0  0  0  0  0  0  0  0
   -3.1373    2.7542    2.5357 C   0  0  0  0  0  0  0  0  0  0  0  0
   -4.7787    1.6127    1.0374 C   0  0  0  0  0  0  0  0  0  0  0  0
    0.5001    3.8031    3.3082 H   0  0  0  0  0  0  0  0  0  0  0  0
    1.9533    4.7635    3.6747 H   0  0  0  0  0  0  0  0  0  0  0  0
    1.0854    5.0124    2.1407 H   0  0  0  0  0  0  0  0  0  0  0  0
    3.1458    3.6777    1.7911 H   0  0  0  0  0  0  0  0  0  0  0  0
    3.3036    1.4108    2.7834 H   0  0  0  0  0  0  0  0  0  0  0  0
    3.2486    2.6602    4.0500 H   0  0  0  0  0  0  0  0  0  0  0  0
    1.7954    1.6999    3.6836 H   0  0  0  0  0  0  0  0  0  0  0  0
    0.5335    2.1259    1.5143 H   0  0  0  0  0  0  0  0  0  0  0  0
    2.0529    1.7017    0.6898 H   0  0  0  0  0  0  0  0  0  0  0  0
    0.7440    4.9905   -2.0811 H   0  0  0  0  0  0  0  0  0  0  0  0
    2.2976    5.2957   -3.9522 H   0  0  0  0  0  0  0  0  0  0  0  0
    5.1072    2.6768   -2.0336 H   0  0  0  0  0  0  0  0  0  0  0  0
    3.5444    2.3749   -0.1697 H   0  0  0  0  0  0  0  0  0  0  0  0
    0.9960    6.1302    0.0293 H   0  0  0  0  0  0  0  0  0  0  0  0
   -1.0779    7.4419    0.1252 H   0  0  0  0  0  0  0  0  0  0  0  0
   -1.2872    2.5233    0.2033 H   0  0  0  0  0  0  0  0  0  0  0  0
   -4.5519    4.7034    1.8641 H   0  0  0  0  0  0  0  0  0  0  0  0
   -5.6646    3.8923    0.7315 H   0  0  0  0  0  0  0  0  0  0  0  0
   -5.7292    6.2884    0.2619 H   0  0  0  0  0  0  0  0  0  0  0  0
   -4.8521    5.4939   -1.0719 H   0  0  0  0  0  0  0  0  0  0  0  0
   -2.8407    7.7919    1.9176 H   0  0  0  0  0  0  0  0  0  0  0  0
   -4.6128    7.8054    1.7519 H   0  0  0  0  0  0  0  0  0  0  0  0
   -3.7933    6.3787    2.4308 H   0  0  0  0  0  0  0  0  0  0  0  0
   -3.3940    7.2964   -1.7288 H   0  0  0  0  0  0  0  0  0  0  0  0
   -4.3796    8.3415   -0.6778 H   0  0  0  0  0  0  0  0  0  0  0  0
   -2.6077    8.3274   -0.5094 H   0  0  0  0  0  0  0  0  0  0  0  0
   -2.6672    1.8086    0.6581 H   0  0  0  0  0  0  0  0  0  0  0  0
   -3.9423    3.3533    2.9613 H   0  0  0  0  0  0  0  0  0  0  0  0
   -3.0243    1.8358    3.1117 H   0  0  0  0  0  0  0  0  0  0  0  0
   -2.2065    3.3206    2.5686 H   0  0  0  0  0  0  0  0  0  0  0  0
   -5.0659    1.4458   -0.0007 H   0  0  0  0  0  0  0  0  0  0  0  0
   -4.6377    0.6527    1.5342 H   0  0  0  0  0  0  0  0  0  0  0  0
   -5.5632    2.1731    1.5459 H   0  0  0  0  0  0  0  0  0  0  0  0
    5.9357    3.5622   -4.2306 O   0  5  0  0  0  0  0  0  0  0  0  0
  1  2  1  0  0  0  0
  1 29  1  0  0  0  0
  1 30  1  0  0  0  0
  1 31  1  0  0  0  0
  2  3  1  0  0  0  0
  2  4  1  0  0  0  0
  2 32  1  0  0  0  0
  3 33  1  0  0  0  0
  3 34  1  0  0  0  0
  3 35  1  0  0  0  0
  4  5  1  0  0  0  0
  4 36  1  0  0  0  0
  4 37  1  0  0  0  0
  5  6  1  0  0  0  0
  5 14  1  0  0  0  0
  6 11  2  0  0  0  0
  6  7  1  0  0  0  0
  7  8  2  0  0  0  0
  7 38  1  0  0  0  0
  8  9  1  0  0  0  0
  8 39  1  0  0  0  0
  9 10  2  0  0  0  0
  9 12  1  0  0  0  0
 10 11  1  0  0  0  0
 10 40  1  0  0  0  0
 11 41  1  0  0  0  0
 12 13  2  0  0  0  0
 12 62  1  0  0  0  0
 14 19  2  0  0  0  0
 14 15  1  0  0  0  0
 15 16  2  0  0  0  0
 15 42  1  0  0  0  0
 16 17  1  0  0  0  0
 16 43  1  0  0  0  0
 17 23  1  0  0  0  0
 17 18  2  0  0  0  0
 18 19  1  0  0  0  0
 18 20  1  0  0  0  0
 19 44  1  0  0  0  0
 20 21  1  0  0  0  0
 20 26  1  0  0  0  0
 21 22  1  0  0  0  0
 21 45  1  0  0  0  0
 21 46  1  0  0  0  0
 22 23  1  0  0  0  0
 22 47  1  0  0  0  0
 22 48  1  0  0  0  0
 23 24  1  0  0  0  0
 23 25  1  0  0  0  0
 24 49  1  0  0  0  0
 24 50  1  0  0  0  0
 24 51  1  0  0  0  0
 25 52  1  0  0  0  0
 25 53  1  0  0  0  0
 25 54  1  0  0  0  0
 26 27  1  0  0  0  0
 26 28  1  0  0  0  0
 26 55  1  0  0  0  0
 27 56  1  0  0  0  0
 27 57  1  0  0  0  0
 27 58  1  0  0  0  0
 28 59  1  0  0  0  0
 28 60  1  0  0  0  0
 28 61  1  0  0  0  0
M  CHG  1  62  -1
M  END
$$$$
ZINC01549310
  -OEChem-08230709463D

 60 63  0     1  0  0  0  0  0999 V2000
   -0.4917   -1.2498    2.7605 C   0  0  0  0  0  0  0  0  0  0  0  0
   -0.8223   -1.8344    1.3857 C   0  0  0  0  0  0  0  0  0  0  0  0
   -2.0767   -2.7042    1.4897 C   0  0  0  0  0  0  0  0  0  0  0  0
   -1.0617   -0.7416    0.4337 N   0  0  1  0  0  0  0  0  0  0  0  0
   -2.2434    0.0353    0.8130 C   0  0  0  0  0  0  0  0  0  0  0  0
   -2.4285    1.1732   -0.1986 C   0  0  0  0  0  0  0  0  0  0  0  0
   -1.2733    2.1599   -0.0149 C   0  0  0  0  0  0  0  0  0  0  0  0
    0.0321    1.4070    0.0485 C   0  0  0  0  0  0  0  0  0  0  0  0
    0.0807    0.0414    0.2743 C   0  0  0  0  0  0  0  0  0  0  0  0
    1.3174   -0.5994    0.3391 C   0  0  0  0  0  0  0  0  0  0  0  0
    2.4889    0.1209    0.1727 C   0  0  0  0  0  0  0  0  0  0  0  0
    2.4307    1.4898   -0.0594 C   0  0  0  0  0  0  0  0  0  0  0  0
    1.2070    2.1237   -0.1198 C   0  0  0  0  0  0  0  0  0  0  0  0
    3.7252   -0.5270    0.2376 N   0  0  0  0  0  0  0  0  0  0  0  0
    4.6361   -0.2569    1.3527 C   0  0  0  0  0  0  0  0  0  0  0  0
    4.3510   -1.2366    2.4928 C   0  0  0  0  0  0  0  0  0  0  0  0
    3.8483   -0.6544    3.8154 C   0  0  0  0  0  0  0  0  0  0  0  0
    5.2772   -1.1930    3.7098 C   0  0  0  0  0  0  0  0  0  0  0  0
    4.0909   -1.4282   -0.7564 C   0  0  0  0  0  0  0  0  0  0  0  0
    5.2826   -2.1398   -0.6447 C   0  0  0  0  0  0  0  0  0  0  0  0
    5.6438   -3.0327   -1.6205 C   0  0  0  0  0  0  0  0  0  0  0  0
    4.8187   -3.2207   -2.7341 C   0  0  0  0  0  0  0  0  0  0  0  0
    3.6251   -2.5004   -2.8458 C   0  0  0  0  0  0  0  0  0  0  0  0
    3.2674   -1.6127   -1.8641 C   0  0  0  0  0  0  0  0  0  0  0  0
    5.2061   -4.1762   -3.7873 C   0  0  0  0  0  0  0  0  0  0  0  0
    4.4881   -4.3388   -4.7540 O   0  0  0  0  0  0  0  0  0  0  0  0
   -1.4736    2.9422    1.2846 C   0  0  0  0  0  0  0  0  0  0  0  0
   -1.2428    3.1335   -1.1948 C   0  0  0  0  0  0  0  0  0  0  0  0
   -1.3274   -0.6422    3.1075 H   0  0  0  0  0  0  0  0  0  0  0  0
   -0.3140   -2.0607    3.4669 H   0  0  0  0  0  0  0  0  0  0  0  0
    0.4020   -0.6302    2.6864 H   0  0  0  0  0  0  0  0  0  0  0  0
    0.0134   -2.4420    1.0387 H   0  0  0  0  0  0  0  0  0  0  0  0
   -2.3751   -3.0320    0.4939 H   0  0  0  0  0  0  0  0  0  0  0  0
   -1.8648   -3.5748    2.1104 H   0  0  0  0  0  0  0  0  0  0  0  0
   -2.8839   -2.1255    1.9388 H   0  0  0  0  0  0  0  0  0  0  0  0
   -3.1228   -0.6087    0.8040 H   0  0  0  0  0  0  0  0  0  0  0  0
   -2.1037    0.4495    1.8114 H   0  0  0  0  0  0  0  0  0  0  0  0
   -2.4129    0.7718   -1.2119 H   0  0  0  0  0  0  0  0  0  0  0  0
   -3.3776    1.6774   -0.0166 H   0  0  0  0  0  0  0  0  0  0  0  0
    1.3621   -1.6633    0.5197 H   0  0  0  0  0  0  0  0  0  0  0  0
    3.3410    2.0558   -0.1918 H   0  0  0  0  0  0  0  0  0  0  0  0
    1.1638    3.1876   -0.3005 H   0  0  0  0  0  0  0  0  0  0  0  0
    5.6662   -0.3787    1.0180 H   0  0  0  0  0  0  0  0  0  0  0  0
    4.4867    0.7638    1.7048 H   0  0  0  0  0  0  0  0  0  0  0  0
    3.9622   -2.2091    2.1908 H   0  0  0  0  0  0  0  0  0  0  0  0
    3.7206    0.4265    3.8733 H   0  0  0  0  0  0  0  0  0  0  0  0
    3.1290   -1.2441    4.3837 H   0  0  0  0  0  0  0  0  0  0  0  0
    5.4974   -2.1368    4.2088 H   0  0  0  0  0  0  0  0  0  0  0  0
    6.0899   -0.4667    3.6981 H   0  0  0  0  0  0  0  0  0  0  0  0
    5.9210   -1.9913    0.2137 H   0  0  0  0  0  0  0  0  0  0  0  0
    6.5660   -3.5876   -1.5310 H   0  0  0  0  0  0  0  0  0  0  0  0
    2.9856   -2.6436   -3.7043 H   0  0  0  0  0  0  0  0  0  0  0  0
    2.3458   -1.0562   -1.9497 H   0  0  0  0  0  0  0  0  0  0  0  0
   -0.6529    3.6477    1.4142 H   0  0  0  0  0  0  0  0  0  0  0  0
   -2.4169    3.4865    1.2394 H   0  0  0  0  0  0  0  0  0  0  0  0
   -1.4937    2.2497    2.1261 H   0  0  0  0  0  0  0  0  0  0  0  0
   -1.0984    2.5774   -2.1211 H   0  0  0  0  0  0  0  0  0  0  0  0
   -2.1860    3.6779   -1.2411 H   0  0  0  0  0  0  0  0  0  0  0  0
   -0.4223    3.8388   -1.0627 H   0  0  0  0  0  0  0  0  0  0  0  0
    6.3566   -4.8694   -3.6781 O   0  5  0  0  0  0  0  0  0  0  0  0
  1  2  1  0  0  0  0
  1 29  1  0  0  0  0
  1 30  1  0  0  0  0
  1 31  1  0  0  0  0
  2  3  1  0  0  0  0
  2  4  1  0  0  0  0
  2 32  1  0  0  0  0
  3 33  1  0  0  0  0
  3 34  1  0  0  0  0
  3 35  1  0  0  0  0
  4  9  1  0  0  0  0
  4  5  1  0  0  0  0
  5  6  1  0  0  0  0
  5 36  1  0  0  0  0
  5 37  1  0  0  0  0
  6  7  1  0  0  0  0
  6 38  1  0  0  0  0
  6 39  1  0  0  0  0
  7  8  1  0  0  0  0
  7 27  1  0  0  0  0
  7 28  1  0  0  0  0
  8 13  2  0  0  0  0
  8  9  1  0  0  0  0
  9 10  2  0  0  0  0
 10 11  1  0  0  0  0
 10 40  1  0  0  0  0
 11 12  2  0  0  0  0
 11 14  1  0  0  0  0
 12 13  1  0  0  0  0
 12 41  1  0  0  0  0
 13 42  1  0  0  0  0
 14 15  1  0  0  0  0
 14 19  1  0  0  0  0
 15 16  1  0  0  0  0
 15 43  1  0  0  0  0
 15 44  1  0  0  0  0
 16 18  1  0  0  0  0
 16 17  1  0  0  0  0
 16 45  1  0  0  0  0
 17 18  1  0  0  0  0
 17 46  1  0  0  0  0
 17 47  1  0  0  0  0
 18 48  1  0  0  0  0
 18 49  1  0  0  0  0
 19 24  2  0  0  0  0
 19 20  1  0  0  0  0
 20 21  2  0  0  0  0
 20 50  1  0  0  0  0
 21 22  1  0  0  0  0
 21 51  1  0  0  0  0
 22 23  2  0  0  0  0
 22 25  1  0  0  0  0
 23 24  1  0  0  0  0
 23 52  1  0  0  0  0
 24 53  1  0  0  0  0
 25 26  2  0  0  0  0
 25 60  1  0  0  0  0
 27 54  1  0  0  0  0
 27 55  1  0  0  0  0
 27 56  1  0  0  0  0
 28 57  1  0  0  0  0
 28 58  1  0  0  0  0
 28 59  1  0  0  0  0
M  CHG  1  60  -1
M  END
$$$$
ZINC01549311
  -OEChem-08230709463D

 56 58  0     1  0  0  0  0  0999 V2000
   -0.1146    3.6884   -2.3041 C   0  0  0  0  0  0  0  0  0  0  0  0
    0.7583    2.8153   -1.4004 C   0  0  0  0  0  0  0  0  0  0  0  0
    1.1326    3.5726   -0.2035 N   0  0  0  0  0  0  0  0  0  0  0  0
    0.3247    3.5294    0.9276 C   0  0  0  0  0  0  0  0  0  0  0  0
   -0.8868    2.8437    0.8902 C   0  0  0  0  0  0  0  0  0  0  0  0
   -1.6855    2.7989    2.0037 C   0  0  0  0  0  0  0  0  0  0  0  0
   -1.2823    3.4427    3.1780 C   0  0  0  0  0  0  0  0  0  0  0  0
   -0.0649    4.1305    3.2122 C   0  0  0  0  0  0  0  0  0  0  0  0
    0.7291    4.1715    2.0952 C   0  0  0  0  0  0  0  0  0  0  0  0
   -2.1385    3.3970    4.3767 C   0  0  0  0  0  0  0  0  0  0  0  0
   -3.1961    2.7994    4.3454 O   0  0  0  0  0  0  0  0  0  0  0  0
    2.3013    4.3382   -0.1983 C   0  0  0  0  0  0  0  0  0  0  0  0
    2.2258    5.7256   -0.1550 C   0  0  0  0  0  0  0  0  0  0  0  0
    3.3832    6.4753   -0.1478 C   0  0  0  0  0  0  0  0  0  0  0  0
    4.6243    5.8580   -0.1945 C   0  0  0  0  0  0  0  0  0  0  0  0
    4.7087    4.4766   -0.2379 C   0  0  0  0  0  0  0  0  0  0  0  0
    3.5385    3.7176   -0.2422 C   0  0  0  0  0  0  0  0  0  0  0  0
    5.9227    3.7918   -0.2686 N   0  0  2  0  0  0  0  0  0  0  0  0
    7.0408    4.6227   -0.7194 C   0  0  0  0  0  0  0  0  0  0  0  0
    7.0856    5.8930    0.1391 C   0  0  0  0  0  0  0  0  0  0  0  0
    5.8523    6.7337   -0.1987 C   0  0  0  0  0  0  0  0  0  0  0  0
    6.0266    7.3596   -1.5840 C   0  0  0  0  0  0  0  0  0  0  0  0
    5.6911    7.8417    0.8440 C   0  0  0  0  0  0  0  0  0  0  0  0
    5.8169    2.5688   -1.0754 C   0  0  0  0  0  0  0  0  0  0  0  0
    5.4817    2.9392   -2.5216 C   0  0  0  0  0  0  0  0  0  0  0  0
    7.1483    1.8159   -1.0373 C   0  0  0  0  0  0  0  0  0  0  0  0
   -0.3931    3.1250   -3.1946 H   0  0  0  0  0  0  0  0  0  0  0  0
   -1.0146    3.9836   -1.7647 H   0  0  0  0  0  0  0  0  0  0  0  0
    0.4420    4.5787   -2.5967 H   0  0  0  0  0  0  0  0  0  0  0  0
    1.6583    2.5201   -1.9398 H   0  0  0  0  0  0  0  0  0  0  0  0
    0.2016    1.9250   -1.1077 H   0  0  0  0  0  0  0  0  0  0  0  0
   -1.1954    2.3430   -0.0155 H   0  0  0  0  0  0  0  0  0  0  0  0
   -2.6251    2.2672    1.9740 H   0  0  0  0  0  0  0  0  0  0  0  0
    0.2492    4.6290    4.1173 H   0  0  0  0  0  0  0  0  0  0  0  0
    1.6692    4.7024    2.1209 H   0  0  0  0  0  0  0  0  0  0  0  0
    1.2635    6.2148   -0.1233 H   0  0  0  0  0  0  0  0  0  0  0  0
    3.3226    7.5529   -0.1100 H   0  0  0  0  0  0  0  0  0  0  0  0
    3.5976    2.6399   -0.2802 H   0  0  0  0  0  0  0  0  0  0  0  0
    6.8971    4.8931   -1.7655 H   0  0  0  0  0  0  0  0  0  0  0  0
    7.9746    4.0719   -0.6064 H   0  0  0  0  0  0  0  0  0  0  0  0
    7.9900    6.4583   -0.0858 H   0  0  0  0  0  0  0  0  0  0  0  0
    7.0713    5.6255    1.1957 H   0  0  0  0  0  0  0  0  0  0  0  0
    5.1499    7.9614   -1.8237 H   0  0  0  0  0  0  0  0  0  0  0  0
    6.9139    7.9926   -1.5876 H   0  0  0  0  0  0  0  0  0  0  0  0
    6.1400    6.5707   -2.3275 H   0  0  0  0  0  0  0  0  0  0  0  0
    5.5655    7.3964    1.8309 H   0  0  0  0  0  0  0  0  0  0  0  0
    6.5783    8.4750    0.8414 H   0  0  0  0  0  0  0  0  0  0  0  0
    4.8147    8.4432    0.6026 H   0  0  0  0  0  0  0  0  0  0  0  0
    5.0287    1.9337   -0.6710 H   0  0  0  0  0  0  0  0  0  0  0  0
    6.2699    3.5742   -2.9260 H   0  0  0  0  0  0  0  0  0  0  0  0
    5.4033    2.0317   -3.1202 H   0  0  0  0  0  0  0  0  0  0  0  0
    4.5332    3.4755   -2.5487 H   0  0  0  0  0  0  0  0  0  0  0  0
    7.9143    2.4067   -1.5397 H   0  0  0  0  0  0  0  0  0  0  0  0
    7.4410    1.6475   -0.0009 H   0  0  0  0  0  0  0  0  0  0  0  0
    7.0383    0.8572   -1.5441 H   0  0  0  0  0  0  0  0  0  0  0  0
   -1.7486    4.0179    5.5074 O   0  5  0  0  0  0  0  0  0  0  0  0
  1  2  1  0  0  0  0
  1 27  1  0  0  0  0
  1 28  1  0  0  0  0
  1 29  1  0  0  0  0
  2  3  1  0  0  0  0
  2 30  1  0  0  0  0
  2 31  1  0  0  0  0
  3  4  1  0  0  0  0
  3 12  1  0  0  0  0
  4  9  2  0  0  0  0
  4  5  1  0  0  0  0
  5  6  2  0  0  0  0
  5 32  1  0  0  0  0
  6  7  1  0  0  0  0
  6 33  1  0  0  0  0
  7  8  2  0  0  0  0
  7 10  1  0  0  0  0
  8  9  1  0  0  0  0
  8 34  1  0  0  0  0
  9 35  1  0  0  0  0
 10 11  2  0  0  0  0
 10 56  1  0  0  0  0
 12 17  2  0  0  0  0
 12 13  1  0  0  0  0
 13 14  2  0  0  0  0
 13 36  1  0  0  0  0
 14 15  1  0  0  0  0
 14 37  1  0  0  0  0
 15 21  1  0  0  0  0
 15 16  2  0  0  0  0
 16 17  1  0  0  0  0
 16 18  1  0  0  0  0
 17 38  1  0  0  0  0
 18 19  1  0  0  0  0
 18 24  1  0  0  0  0
 19 20  1  0  0  0  0
 19 39  1  0  0  0  0
 19 40  1  0  0  0  0
 20 21  1  0  0  0  0
 20 41  1  0  0  0  0
 20 42  1  0  0  0  0
 21 22  1  0  0  0  0
 21 23  1  0  0  0  0
 22 43  1  0  0  0  0
 22 44  1  0  0  0  0
 22 45  1  0  0  0  0
 23 46  1  0  0  0  0
 23 47  1  0  0  0  0
 23 48  1  0  0  0  0
 24 25  1  0  0  0  0
 24 26  1  0  0  0  0
 24 49  1  0  0  0  0
 25 50  1  0  0  0  0
 25 51  1  0  0  0  0
 25 52  1  0  0  0  0
 26 53  1  0  0  0  0
 26 54  1  0  0  0  0
 26 55  1  0  0  0  0
M  CHG  1  56  -1
M  END
$$$$
ZINC01549312
  -OEChem-08230709463D

 53 55  0     1  0  0  0  0  0999 V2000
    2.3647   -0.3797    0.4533 C   0  0  0  0  0  0  0  0  0  0  0  0
    2.3737    1.1002    0.1688 C   0  0  0  0  0  0  0  0  0  0  0  0
    3.5707    1.7652    0.0017 C   0  0  0  0  0  0  0  0  0  0  0  0
    3.5910    3.1265   -0.2605 C   0  0  0  0  0  0  0  0  0  0  0  0
    2.4021    3.8297   -0.3611 C   0  0  0  0  0  0  0  0  0  0  0  0
    1.1916    3.1577   -0.1948 C   0  0  0  0  0  0  0  0  0  0  0  0
    1.1762    1.7990    0.0746 C   0  0  0  0  0  0  0  0  0  0  0  0
   -0.0396    1.1321    0.2453 N   0  0  0  0  0  0  0  0  0  0  0  0
   -0.4592    0.7665    1.5197 C   0  0  0  0  0  0  0  0  0  0  0  0
    0.2691    1.1741    2.6344 C   0  0  0  0  0  0  0  0  0  0  0  0
   -0.1445    0.8194    3.8926 C   0  0  0  0  0  0  0  0  0  0  0  0
   -1.2936    0.0388    4.0551 C   0  0  0  0  0  0  0  0  0  0  0  0
   -2.0198   -0.3733    2.9331 C   0  0  0  0  0  0  0  0  0  0  0  0
   -1.6034   -0.0111    1.6780 C   0  0  0  0  0  0  0  0  0  0  0  0
   -1.7385   -0.3483    5.4058 C   0  0  0  0  0  0  0  0  0  0  0  0
   -2.7373   -1.0262    5.5455 O   0  0  0  0  0  0  0  0  0  0  0  0
    2.3501    5.1959   -0.6340 N   0  0  2  0  0  0  0  0  0  0  0  0
    3.6055    5.8895   -0.3399 C   0  0  0  0  0  0  0  0  0  0  0  0
    4.7464    5.1708   -1.0708 C   0  0  0  0  0  0  0  0  0  0  0  0
    4.9321    3.7982   -0.4201 C   0  0  0  0  0  0  0  0  0  0  0  0
    5.5822    3.9700    0.9542 C   0  0  0  0  0  0  0  0  0  0  0  0
    5.8328    2.9332   -1.3040 C   0  0  0  0  0  0  0  0  0  0  0  0
    1.2228    5.8294    0.0630 C   0  0  0  0  0  0  0  0  0  0  0  0
    1.4204    5.7004    1.5747 C   0  0  0  0  0  0  0  0  0  0  0  0
    1.1545    7.3096   -0.3180 C   0  0  0  0  0  0  0  0  0  0  0  0
    2.3289   -0.9302   -0.4868 H   0  0  0  0  0  0  0  0  0  0  0  0
    3.2688   -0.6504    0.9986 H   0  0  0  0  0  0  0  0  0  0  0  0
    1.4899   -0.6289    1.0538 H   0  0  0  0  0  0  0  0  0  0  0  0
    4.5004    1.2204    0.0754 H   0  0  0  0  0  0  0  0  0  0  0  0
    0.2611    3.7004   -0.2723 H   0  0  0  0  0  0  0  0  0  0  0  0
   -0.5930    0.9277   -0.5247 H   0  0  0  0  0  0  0  0  0  0  0  0
    1.1586    1.7734    2.5080 H   0  0  0  0  0  0  0  0  0  0  0  0
    0.4185    1.1393    4.7570 H   0  0  0  0  0  0  0  0  0  0  0  0
   -2.9077   -0.9759    3.0552 H   0  0  0  0  0  0  0  0  0  0  0  0
   -2.1637   -0.3290    0.8112 H   0  0  0  0  0  0  0  0  0  0  0  0
    3.5428    6.9215   -0.6851 H   0  0  0  0  0  0  0  0  0  0  0  0
    3.7905    5.8713    0.7342 H   0  0  0  0  0  0  0  0  0  0  0  0
    4.4905    5.0483   -2.1233 H   0  0  0  0  0  0  0  0  0  0  0  0
    5.6652    5.7501   -0.9799 H   0  0  0  0  0  0  0  0  0  0  0  0
    5.7179    2.9924    1.4168 H   0  0  0  0  0  0  0  0  0  0  0  0
    6.5514    4.4554    0.8395 H   0  0  0  0  0  0  0  0  0  0  0  0
    4.9405    4.5846    1.5855 H   0  0  0  0  0  0  0  0  0  0  0  0
    5.3698    2.8087   -2.2829 H   0  0  0  0  0  0  0  0  0  0  0  0
    6.8021    3.4181   -1.4197 H   0  0  0  0  0  0  0  0  0  0  0  0
    5.9683    1.9566   -0.8393 H   0  0  0  0  0  0  0  0  0  0  0  0
    0.2942    5.3368   -0.2253 H   0  0  0  0  0  0  0  0  0  0  0  0
    1.4691    4.6459    1.8461 H   0  0  0  0  0  0  0  0  0  0  0  0
    2.3490    6.1931    1.8631 H   0  0  0  0  0  0  0  0  0  0  0  0
    0.5840    6.1705    2.0919 H   0  0  0  0  0  0  0  0  0  0  0  0
    1.1237    7.4044   -1.4034 H   0  0  0  0  0  0  0  0  0  0  0  0
    0.2566    7.7542    0.1112 H   0  0  0  0  0  0  0  0  0  0  0  0
    2.0346    7.8248    0.0669 H   0  0  0  0  0  0  0  0  0  0  0  0
   -1.0377    0.0496    6.4859 O   0  5  0  0  0  0  0  0  0  0  0  0
  1  2  1  0  0  0  0
  1 26  1  0  0  0  0
  1 27  1  0  0  0  0
  1 28  1  0  0  0  0
  2  7  2  0  0  0  0
  2  3  1  0  0  0  0
  3  4  2  0  0  0  0
  3 29  1  0  0  0  0
  4 20  1  0  0  0  0
  4  5  1  0  0  0  0
  5  6  2  0  0  0  0
  5 17  1  0  0  0  0
  6  7  1  0  0  0  0
  6 30  1  0  0  0  0
  7  8  1  0  0  0  0
  8  9  1  0  0  0  0
  8 31  1  0  0  0  0
  9 14  2  0  0  0  0
  9 10  1  0  0  0  0
 10 11  2  0  0  0  0
 10 32  1  0  0  0  0
 11 12  1  0  0  0  0
 11 33  1  0  0  0  0
 12 13  2  0  0  0  0
 12 15  1  0  0  0  0
 13 14  1  0  0  0  0
 13 34  1  0  0  0  0
 14 35  1  0  0  0  0
 15 16  2  0  0  0  0
 15 53  1  0  0  0  0
 17 18  1  0  0  0  0
 17 23  1  0  0  0  0
 18 19  1  0  0  0  0
 18 36  1  0  0  0  0
 18 37  1  0  0  0  0
 19 20  1  0  0  0  0
 19 38  1  0  0  0  0
 19 39  1  0  0  0  0
 20 21  1  0  0  0  0
 20 22  1  0  0  0  0
 21 40  1  0  0  0  0
 21 41  1  0  0  0  0
 21 42  1  0  0  0  0
 22 43  1  0  0  0  0
 22 44  1  0  0  0  0
 22 45  1  0  0  0  0
 23 24  1  0  0  0  0
 23 25  1  0  0  0  0
 23 46  1  0  0  0  0
 24 47  1  0  0  0  0
 24 48  1  0  0  0  0
 24 49  1  0  0  0  0
 25 50  1  0  0  0  0
 25 51  1  0  0  0  0
 25 52  1  0  0  0  0
M  CHG  1  53  -1
M  END
$$$$
ZINC01549315
  -OEChem-08230709463D

 62 64  0     1  0  0  0  0  0999 V2000
    0.6325   10.2074   -1.5863 C   0  0  0  0  0  0  0  0  0  0  0  0
   -0.4206    9.1019   -1.6858 C   0  0  0  0  0  0  0  0  0  0  0  0
   -0.6932    8.5304   -0.2930 C   0  0  0  0  0  0  0  0  0  0  0  0
   -1.7015    7.4718   -0.3883 N   0  0  0  0  0  0  0  0  0  0  0  0
   -3.0513    7.7846   -0.2696 C   0  0  0  0  0  0  0  0  0  0  0  0
   -4.0087    6.7780   -0.3662 C   0  0  0  0  0  0  0  0  0  0  0  0
   -5.3401    7.0823   -0.2448 C   0  0  0  0  0  0  0  0  0  0  0  0
   -5.7367    8.4069   -0.0344 C   0  0  0  0  0  0  0  0  0  0  0  0
   -4.7728    9.4162    0.0568 C   0  0  0  0  0  0  0  0  0  0  0  0
   -3.4428    9.1044   -0.0602 C   0  0  0  0  0  0  0  0  0  0  0  0
   -7.1673    8.7383    0.0914 C   0  0  0  0  0  0  0  0  0  0  0  0
   -7.5104    9.8896    0.2745 O   0  0  0  0  0  0  0  0  0  0  0  0
   -1.3070    6.1481   -0.5985 C   0  0  0  0  0  0  0  0  0  0  0  0
   -1.0457    5.3211    0.4817 C   0  0  0  0  0  0  0  0  0  0  0  0
   -0.6522    3.9989    0.2783 C   0  0  0  0  0  0  0  0  0  0  0  0
   -0.5283    3.5161   -1.0139 C   0  0  0  0  0  0  0  0  0  0  0  0
   -0.7887    4.3480   -2.0922 C   0  0  0  0  0  0  0  0  0  0  0  0
   -1.1759    5.6567   -1.8918 C   0  0  0  0  0  0  0  0  0  0  0  0
   -1.4564    6.5509   -3.0719 C   0  0  0  0  0  0  0  0  0  0  0  0
   -0.1144    2.0940   -1.2990 C   0  0  0  0  0  0  0  0  0  0  0  0
    0.4887    1.4706   -0.0382 C   0  0  0  0  0  0  0  0  0  0  0  0
   -0.4458    1.7824    1.1374 C   0  0  0  0  0  0  0  0  0  0  0  0
   -0.3963    3.2206    1.4064 N   0  0  2  0  0  0  0  0  0  0  0  0
   -1.2964    3.5812    2.5099 C   0  0  0  0  0  0  0  0  0  0  0  0
   -2.7432    3.2972    2.1015 C   0  0  0  0  0  0  0  0  0  0  0  0
   -0.9438    2.7528    3.7470 C   0  0  0  0  0  0  0  0  0  0  0  0
    0.9258    2.0816   -2.4209 C   0  0  0  0  0  0  0  0  0  0  0  0
   -1.3391    1.2851   -1.7312 C   0  0  0  0  0  0  0  0  0  0  0  0
    0.8267   10.6145   -2.5786 H   0  0  0  0  0  0  0  0  0  0  0  0
    0.2666   11.0000   -0.9336 H   0  0  0  0  0  0  0  0  0  0  0  0
    1.5543    9.7952   -1.1759 H   0  0  0  0  0  0  0  0  0  0  0  0
   -0.0547    8.3093   -2.3386 H   0  0  0  0  0  0  0  0  0  0  0  0
   -1.3424    9.5140   -2.0963 H   0  0  0  0  0  0  0  0  0  0  0  0
   -1.0591    9.3229    0.3597 H   0  0  0  0  0  0  0  0  0  0  0  0
    0.2286    8.1182    0.1174 H   0  0  0  0  0  0  0  0  0  0  0  0
   -3.7020    5.7561   -0.5331 H   0  0  0  0  0  0  0  0  0  0  0  0
   -6.0819    6.3006   -0.3157 H   0  0  0  0  0  0  0  0  0  0  0  0
   -5.0758   10.4400    0.2196 H   0  0  0  0  0  0  0  0  0  0  0  0
   -2.6980    9.8832    0.0105 H   0  0  0  0  0  0  0  0  0  0  0  0
   -1.1476    5.7024    1.4870 H   0  0  0  0  0  0  0  0  0  0  0  0
   -0.6879    3.9678   -3.0980 H   0  0  0  0  0  0  0  0  0  0  0  0
   -0.5393    7.0601   -3.3681 H   0  0  0  0  0  0  0  0  0  0  0  0
   -1.8234    5.9500   -3.9040 H   0  0  0  0  0  0  0  0  0  0  0  0
   -2.2095    7.2895   -2.7972 H   0  0  0  0  0  0  0  0  0  0  0  0
    0.5741    0.3914   -0.1652 H   0  0  0  0  0  0  0  0  0  0  0  0
    1.4734    1.8987    0.1499 H   0  0  0  0  0  0  0  0  0  0  0  0
   -1.4651    1.4941    0.8808 H   0  0  0  0  0  0  0  0  0  0  0  0
   -0.1189    1.2330    2.0202 H   0  0  0  0  0  0  0  0  0  0  0  0
   -1.1847    4.6411    2.7384 H   0  0  0  0  0  0  0  0  0  0  0  0
   -2.8549    2.2373    1.8730 H   0  0  0  0  0  0  0  0  0  0  0  0
   -3.4111    3.5647    2.9203 H   0  0  0  0  0  0  0  0  0  0  0  0
   -2.9944    3.8873    1.2201 H   0  0  0  0  0  0  0  0  0  0  0  0
    0.1163    2.8694    3.9723 H   0  0  0  0  0  0  0  0  0  0  0  0
   -1.5354    3.0968    4.5954 H   0  0  0  0  0  0  0  0  0  0  0  0
   -1.1610    1.7021    3.5548 H   0  0  0  0  0  0  0  0  0  0  0  0
    1.2227    1.0538   -2.6298 H   0  0  0  0  0  0  0  0  0  0  0  0
    0.4967    2.5255   -3.3192 H   0  0  0  0  0  0  0  0  0  0  0  0
    1.7991    2.6566   -2.1130 H   0  0  0  0  0  0  0  0  0  0  0  0
   -2.0800    1.2925   -0.9317 H   0  0  0  0  0  0  0  0  0  0  0  0
   -1.7692    1.7287   -2.6291 H   0  0  0  0  0  0  0  0  0  0  0  0
   -1.0407    0.2579   -1.9405 H   0  0  0  0  0  0  0  0  0  0  0  0
   -8.0948    7.7647    0.0033 O   0  5  0  0  0  0  0  0  0  0  0  0
  1  2  1  0  0  0  0
  1 29  1  0  0  0  0
  1 30  1  0  0  0  0
  1 31  1  0  0  0  0
  2  3  1  0  0  0  0
  2 32  1  0  0  0  0
  2 33  1  0  0  0  0
  3  4  1  0  0  0  0
  3 34  1  0  0  0  0
  3 35  1  0  0  0  0
  4  5  1  0  0  0  0
  4 13  1  0  0  0  0
  5 10  2  0  0  0  0
  5  6  1  0  0  0  0
  6  7  2  0  0  0  0
  6 36  1  0  0  0  0
  7  8  1  0  0  0  0
  7 37  1  0  0  0  0
  8  9  2  0  0  0  0
  8 11  1  0  0  0  0
  9 10  1  0  0  0  0
  9 38  1  0  0  0  0
 10 39  1  0  0  0  0
 11 12  2  0  0  0  0
 11 62  1  0  0  0  0
 13 18  2  0  0  0  0
 13 14  1  0  0  0  0
 14 15  2  0  0  0  0
 14 40  1  0  0  0  0
 15 23  1  0  0  0  0
 15 16  1  0  0  0  0
 16 17  2  0  0  0  0
 16 20  1  0  0  0  0
 17 18  1  0  0  0  0
 17 41  1  0  0  0  0
 18 19  1  0  0  0  0
 19 42  1  0  0  0  0
 19 43  1  0  0  0  0
 19 44  1  0  0  0  0
 20 21  1  0  0  0  0
 20 27  1  0  0  0  0
 20 28  1  0  0  0  0
 21 22  1  0  0  0  0
 21 45  1  0  0  0  0
 21 46  1  0  0  0  0
 22 23  1  0  0  0  0
 22 47  1  0  0  0  0
 22 48  1  0  0  0  0
 23 24  1  0  0  0  0
 24 25  1  0  0  0  0
 24 26  1  0  0  0  0
 24 49  1  0  0  0  0
 25 50  1  0  0  0  0
 25 51  1  0  0  0  0
 25 52  1  0  0  0  0
 26 53  1  0  0  0  0
 26 54  1  0  0  0  0
 26 55  1  0  0  0  0
 27 56  1  0  0  0  0
 27 57  1  0  0  0  0
 27 58  1  0  0  0  0
 28 59  1  0  0  0  0
 28 60  1  0  0  0  0
 28 61  1  0  0  0  0
M  CHG  1  62  -1
M  END
$$$$
ZINC01549815
  -OEChem-08230709463D

 53 55  0     1  0  0  0  0  0999 V2000
    3.4650    9.4320   -0.9435 C   0  0  0  0  0  0  0  0  0  0  0  0
    4.6847    9.2054   -0.0481 C   0  0  0  0  0  0  0  0  0  0  0  0
    4.3898    9.7440    1.3504 C   0  0  0  0  0  0  0  0  0  0  0  0
    5.5293    9.3169    2.2833 C   0  0  0  0  0  0  0  0  0  0  0  0
    5.4381    7.8071    2.4952 C   0  0  0  0  0  0  0  0  0  0  0  0
    5.3463    7.0913    1.1731 C   0  0  0  0  0  0  0  0  0  0  0  0
    4.9942    7.7322    0.0062 C   0  0  0  0  0  0  0  0  0  0  0  0
    4.9190    7.0115   -1.1785 C   0  0  0  0  0  0  0  0  0  0  0  0
    5.2030    5.6614   -1.1971 C   0  0  0  0  0  0  0  0  0  0  0  0
    5.5546    5.0177   -0.0255 C   0  0  0  0  0  0  0  0  0  0  0  0
    5.6272    5.7315    1.1531 C   0  0  0  0  0  0  0  0  0  0  0  0
    5.8635    3.5428   -0.0365 C   0  0  1  0  0  0  0  0  0  0  0  0
    6.4498    3.2878    0.8463 H   0  0  0  0  0  0  0  0  0  0  0  0
    4.6059    2.7780   -0.0280 C   0  0  0  0  0  0  0  0  0  0  0  0
    3.6028    2.1680   -0.0213 C   0  0  0  0  0  0  0  0  0  0  0  0
    2.3793    1.4239   -0.0131 C   0  0  0  0  0  0  0  0  0  0  0  0
    1.1531    2.0967    0.0023 C   0  0  0  0  0  0  0  0  0  0  0  0
   -0.0169    1.3949    0.0097 C   0  0  0  0  0  0  0  0  0  0  0  0
    0.0021   -0.0041    0.0020 C   0  0  0  0  0  0  0  0  0  0  0  0
    1.2283   -0.6868   -0.0134 C   0  0  0  0  0  0  0  0  0  0  0  0
    2.4123    0.0298   -0.0209 C   0  0  0  0  0  0  0  0  0  0  0  0
    1.2529   -2.0431   -0.0205 O   0  0  0  0  0  0  0  0  0  0  0  0
   -1.2622   -0.7588    0.0096 C   0  0  0  0  0  0  0  0  0  0  0  0
   -1.2445   -1.9740    0.0029 O   0  0  0  0  0  0  0  0  0  0  0  0
    6.6089    3.2210   -1.2125 O   0  0  0  0  0  0  0  0  0  0  0  0
    4.1952    7.4888    3.3287 C   0  0  0  0  0  0  0  0  0  0  0  0
    6.6831    7.3267    3.2437 C   0  0  0  0  0  0  0  0  0  0  0  0
    5.8856    9.9512   -0.6332 C   0  0  0  0  0  0  0  0  0  0  0  0
    3.2496   10.4990   -1.0009 H   0  0  0  0  0  0  0  0  0  0  0  0
    3.6716    9.0488   -1.9428 H   0  0  0  0  0  0  0  0  0  0  0  0
    2.6047    8.9097   -0.5248 H   0  0  0  0  0  0  0  0  0  0  0  0
    3.4468    9.3331    1.7108 H   0  0  0  0  0  0  0  0  0  0  0  0
    4.3285   10.8318    1.3200 H   0  0  0  0  0  0  0  0  0  0  0  0
    5.4312    9.8286    3.2407 H   0  0  0  0  0  0  0  0  0  0  0  0
    6.4884    9.5667    1.8295 H   0  0  0  0  0  0  0  0  0  0  0  0
    4.6397    7.5127   -2.0934 H   0  0  0  0  0  0  0  0  0  0  0  0
    5.1468    5.1086   -2.1232 H   0  0  0  0  0  0  0  0  0  0  0  0
    5.9045    5.2284    2.0676 H   0  0  0  0  0  0  0  0  0  0  0  0
    1.1324    3.1764    0.0083 H   0  0  0  0  0  0  0  0  0  0  0  0
   -0.9602    1.9207    0.0170 H   0  0  0  0  0  0  0  0  0  0  0  0
    3.3593   -0.4893   -0.0331 H   0  0  0  0  0  0  0  0  0  0  0  0
    1.2514   -2.4319   -0.9059 H   0  0  0  0  0  0  0  0  0  0  0  0
    6.1471    3.4220   -2.0380 H   0  0  0  0  0  0  0  0  0  0  0  0
    4.1373    6.4137    3.4987 H   0  0  0  0  0  0  0  0  0  0  0  0
    4.2580    8.0052    4.2866 H   0  0  0  0  0  0  0  0  0  0  0  0
    3.3048    7.8207    2.7947 H   0  0  0  0  0  0  0  0  0  0  0  0
    7.5706    7.5427    2.6489 H   0  0  0  0  0  0  0  0  0  0  0  0
    6.7530    7.8426    4.2013 H   0  0  0  0  0  0  0  0  0  0  0  0
    6.6126    6.2524    3.4140 H   0  0  0  0  0  0  0  0  0  0  0  0
    6.7545    9.7999    0.0073 H   0  0  0  0  0  0  0  0  0  0  0  0
    6.0992    9.5695   -1.6315 H   0  0  0  0  0  0  0  0  0  0  0  0
    5.6587   11.0157   -0.6921 H   0  0  0  0  0  0  0  0  0  0  0  0
   -2.4391   -0.1021    0.0240 O   0  5  0  0  0  0  0  0  0  0  0  0
  1  2  1  0  0  0  0
  1 29  1  0  0  0  0
  1 30  1  0  0  0  0
  1 31  1  0  0  0  0
  2  7  1  0  0  0  0
  2  3  1  0  0  0  0
  2 28  1  0  0  0  0
  3  4  1  0  0  0  0
  3 32  1  0  0  0  0
  3 33  1  0  0  0  0
  4  5  1  0  0  0  0
  4 34  1  0  0  0  0
  4 35  1  0  0  0  0
  5  6  1  0  0  0  0
  5 26  1  0  0  0  0
  5 27  1  0  0  0  0
  6 11  2  0  0  0  0
  6  7  1  0  0  0  0
  7  8  2  0  0  0  0
  8  9  1  0  0  0  0
  8 36  1  0  0  0  0
  9 10  2  0  0  0  0
  9 37  1  0  0  0  0
 10 11  1  0  0  0  0
 10 12  1  0  0  0  0
 11 38  1  0  0  0  0
 12 13  1  0  0  0  0
 12 14  1  0  0  0  0
 12 25  1  0  0  0  0
 14 15  3  0  0  0  0
 15 16  1  0  0  0  0
 16 21  2  0  0  0  0
 16 17  1  0  0  0  0
 17 18  2  0  0  0  0
 17 39  1  0  0  0  0
 18 19  1  0  0  0  0
 18 40  1  0  0  0  0
 19 20  2  0  0  0  0
 19 23  1  0  0  0  0
 20 21  1  0  0  0  0
 20 22  1  0  0  0  0
 21 41  1  0  0  0  0
 22 42  1  0  0  0  0
 23 24  2  0  0  0  0
 23 53  1  0  0  0  0
 25 43  1  0  0  0  0
 26 44  1  0  0  0  0
 26 45  1  0  0  0  0
 26 46  1  0  0  0  0
 27 47  1  0  0  0  0
 27 48  1  0  0  0  0
 27 49  1  0  0  0  0
 28 50  1  0  0  0  0
 28 51  1  0  0  0  0
 28 52  1  0  0  0  0
M  CHG  1  53  -1
M  END
$$$$
ZINC01549817
  -OEChem-08230709463D

 52 54  0     1  0  0  0  0  0999 V2000
    3.2933   -0.4076    1.9233 C   0  0  0  0  0  0  0  0  0  0  0  0
    2.3702   -0.1392    0.7330 C   0  0  0  0  0  0  0  0  0  0  0  0
    0.9335   -0.4810    1.1228 C   0  0  0  0  0  0  0  0  0  0  0  0
    0.0021   -0.0041    0.0020 C   0  0  0  0  0  0  0  0  0  0  0  0
   -0.0186    1.5231    0.0104 C   0  0  0  0  0  0  0  0  0  0  0  0
    1.3842    2.0718   -0.0000 C   0  0  0  0  0  0  0  0  0  0  0  0
    2.4808    1.3095    0.3354 C   0  0  0  0  0  0  0  0  0  0  0  0
    3.7473    1.8786    0.3115 C   0  0  0  0  0  0  0  0  0  0  0  0
    3.9155    3.1999   -0.0485 C   0  0  0  0  0  0  0  0  0  0  0  0
    2.8152    3.9641   -0.3887 C   0  0  0  0  0  0  0  0  0  0  0  0
    1.5558    3.4010   -0.3639 C   0  0  0  0  0  0  0  0  0  0  0  0
    2.9903    5.4075   -0.7849 C   0  0  1  0  0  0  0  0  0  0  0  0
    2.1154    5.7396   -1.3439 H   0  0  0  0  0  0  0  0  0  0  0  0
    3.1426    6.2332    0.4242 C   0  0  0  0  0  0  0  0  0  0  0  0
    3.2640    6.8917    1.3885 C   0  0  0  0  0  0  0  0  0  0  0  0
    3.4121    7.6949    2.5647 C   0  0  0  0  0  0  0  0  0  0  0  0
    3.3736    7.0981    3.8275 C   0  0  0  0  0  0  0  0  0  0  0  0
    3.5202    7.8661    4.9537 C   0  0  0  0  0  0  0  0  0  0  0  0
    3.6980    9.2480    4.8389 C   0  0  0  0  0  0  0  0  0  0  0  0
    3.7311    9.8455    3.5754 C   0  0  0  0  0  0  0  0  0  0  0  0
    3.5892    9.0761    2.4495 C   0  0  0  0  0  0  0  0  0  0  0  0
    3.8511   10.0756    6.0509 C   0  0  0  0  0  0  0  0  0  0  0  0
    4.0059   11.2765    5.9508 O   0  0  0  0  0  0  0  0  0  0  0  0
    4.1555    5.5393   -1.6015 O   0  0  0  0  0  0  0  0  0  0  0  0
   -0.7657    2.0244   -1.2271 C   0  0  0  0  0  0  0  0  0  0  0  0
   -0.7419    2.0110    1.2673 C   0  0  0  0  0  0  0  0  0  0  0  0
    2.7964   -1.0186   -0.4442 C   0  0  0  0  0  0  0  0  0  0  0  0
    3.2307   -1.4596    2.2016 H   0  0  0  0  0  0  0  0  0  0  0  0
    4.3198   -0.1648    1.6489 H   0  0  0  0  0  0  0  0  0  0  0  0
    2.9869    0.2104    2.7673 H   0  0  0  0  0  0  0  0  0  0  0  0
    0.6757    0.0236    2.0539 H   0  0  0  0  0  0  0  0  0  0  0  0
    0.8334   -1.5590    1.2495 H   0  0  0  0  0  0  0  0  0  0  0  0
   -1.0043   -0.3858    0.1737 H   0  0  0  0  0  0  0  0  0  0  0  0
    0.3717   -0.3609   -0.9593 H   0  0  0  0  0  0  0  0  0  0  0  0
    4.6076    1.2820    0.5765 H   0  0  0  0  0  0  0  0  0  0  0  0
    4.9037    3.6354   -0.0648 H   0  0  0  0  0  0  0  0  0  0  0  0
    0.6965    3.9989   -0.6293 H   0  0  0  0  0  0  0  0  0  0  0  0
    3.2322    6.0311    3.9162 H   0  0  0  0  0  0  0  0  0  0  0  0
    3.4950    7.4041    5.9296 H   0  0  0  0  0  0  0  0  0  0  0  0
    3.8687   10.9130    3.4863 H   0  0  0  0  0  0  0  0  0  0  0  0
    3.6148    9.5377    1.4734 H   0  0  0  0  0  0  0  0  0  0  0  0
    4.9736    5.2613   -1.1673 H   0  0  0  0  0  0  0  0  0  0  0  0
   -1.7875    1.6451   -1.2131 H   0  0  0  0  0  0  0  0  0  0  0  0
   -0.7826    3.1142   -1.2247 H   0  0  0  0  0  0  0  0  0  0  0  0
   -0.2592    1.6709   -2.1253 H   0  0  0  0  0  0  0  0  0  0  0  0
   -0.2184    1.6479    2.1518 H   0  0  0  0  0  0  0  0  0  0  0  0
   -0.7587    3.1008    1.2769 H   0  0  0  0  0  0  0  0  0  0  0  0
   -1.7638    1.6318    1.2687 H   0  0  0  0  0  0  0  0  0  0  0  0
    2.1350   -0.8371   -1.2914 H   0  0  0  0  0  0  0  0  0  0  0  0
    3.8215   -0.7776   -0.7254 H   0  0  0  0  0  0  0  0  0  0  0  0
    2.7362   -2.0677   -0.1545 H   0  0  0  0  0  0  0  0  0  0  0  0
    3.8191    9.4996    7.2685 O   0  5  0  0  0  0  0  0  0  0  0  0
  1  2  1  0  0  0  0
  1 28  1  0  0  0  0
  1 29  1  0  0  0  0
  1 30  1  0  0  0  0
  2  7  1  0  0  0  0
  2  3  1  0  0  0  0
  2 27  1  0  0  0  0
  3  4  1  0  0  0  0
  3 31  1  0  0  0  0
  3 32  1  0  0  0  0
  4  5  1  0  0  0  0
  4 33  1  0  0  0  0
  4 34  1  0  0  0  0
  5  6  1  0  0  0  0
  5 25  1  0  0  0  0
  5 26  1  0  0  0  0
  6 11  2  0  0  0  0
  6  7  1  0  0  0  0
  7  8  2  0  0  0  0
  8  9  1  0  0  0  0
  8 35  1  0  0  0  0
  9 10  2  0  0  0  0
  9 36  1  0  0  0  0
 10 11  1  0  0  0  0
 10 12  1  0  0  0  0
 11 37  1  0  0  0  0
 12 13  1  0  0  0  0
 12 14  1  0  0  0  0
 12 24  1  0  0  0  0
 14 15  3  0  0  0  0
 15 16  1  0  0  0  0
 16 21  2  0  0  0  0
 16 17  1  0  0  0  0
 17 18  2  0  0  0  0
 17 38  1  0  0  0  0
 18 19  1  0  0  0  0
 18 39  1  0  0  0  0
 19 20  2  0  0  0  0
 19 22  1  0  0  0  0
 20 21  1  0  0  0  0
 20 40  1  0  0  0  0
 21 41  1  0  0  0  0
 22 23  2  0  0  0  0
 22 52  1  0  0  0  0
 24 42  1  0  0  0  0
 25 43  1  0  0  0  0
 25 44  1  0  0  0  0
 25 45  1  0  0  0  0
 26 46  1  0  0  0  0
 26 47  1  0  0  0  0
 26 48  1  0  0  0  0
 27 49  1  0  0  0  0
 27 50  1  0  0  0  0
 27 51  1  0  0  0  0
M  CHG  1  52  -1
M  END
$$$$
ZINC01549819
  -OEChem-08230709463D

 50 52  0     0  0  0  0  0  0999 V2000
   -3.9950   12.8152   -0.8580 C   0  0  0  0  0  0  0  0  0  0  0  0
   -5.0782   12.3313    0.1081 C   0  0  0  0  0  0  0  0  0  0  0  0
   -6.4253   12.9148   -0.3127 C   0  0  0  0  0  0  0  0  0  0  0  0
   -7.5228   12.2540    0.5297 C   0  0  0  0  0  0  0  0  0  0  0  0
   -7.6552   10.7973    0.0907 C   0  0  0  0  0  0  0  0  0  0  0  0
   -6.3093   10.1200    0.0880 C   0  0  0  0  0  0  0  0  0  0  0  0
   -5.1237   10.8251    0.0896 C   0  0  0  0  0  0  0  0  0  0  0  0
   -3.9106   10.1444    0.0775 C   0  0  0  0  0  0  0  0  0  0  0  0
   -3.8746    8.7691    0.0736 C   0  0  0  0  0  0  0  0  0  0  0  0
   -5.0729    8.0468    0.0696 C   0  0  0  0  0  0  0  0  0  0  0  0
   -6.2880    8.7350    0.0790 C   0  0  0  0  0  0  0  0  0  0  0  0
   -5.0534    6.6150    0.0617 C   0  0  0  0  0  0  0  0  0  0  0  0
   -5.0375    5.4411    0.0553 C   0  0  0  0  0  0  0  0  0  0  0  0
   -5.0181    4.0092    0.0475 C   0  0  0  0  0  0  0  0  0  0  0  0
   -6.0638    3.3864    0.0491 O   0  0  0  0  0  0  0  0  0  0  0  0
   -3.7258    3.2864    0.0375 C   0  0  0  0  0  0  0  0  0  0  0  0
   -3.7070    1.8904    0.0299 C   0  0  0  0  0  0  0  0  0  0  0  0
   -2.5047    1.2177    0.0205 C   0  0  0  0  0  0  0  0  0  0  0  0
   -1.3050    1.9322    0.0187 C   0  0  0  0  0  0  0  0  0  0  0  0
   -1.3240    3.3284    0.0322 C   0  0  0  0  0  0  0  0  0  0  0  0
   -2.5264    4.0009    0.0352 C   0  0  0  0  0  0  0  0  0  0  0  0
   -0.0144    1.2103    0.0087 C   0  0  0  0  0  0  0  0  0  0  0  0
    0.0021   -0.0041    0.0020 O   0  0  0  0  0  0  0  0  0  0  0  0
   -8.2479   10.7471   -1.3190 C   0  0  0  0  0  0  0  0  0  0  0  0
   -8.5878   10.0624    1.0555 C   0  0  0  0  0  0  0  0  0  0  0  0
   -4.7419   12.8077    1.5226 C   0  0  0  0  0  0  0  0  0  0  0  0
   -3.9455   13.9038   -0.8327 H   0  0  0  0  0  0  0  0  0  0  0  0
   -3.0316   12.4007   -0.5608 H   0  0  0  0  0  0  0  0  0  0  0  0
   -4.2360   12.4858   -1.8687 H   0  0  0  0  0  0  0  0  0  0  0  0
   -6.6001   12.7103   -1.3690 H   0  0  0  0  0  0  0  0  0  0  0  0
   -6.4293   13.9913   -0.1417 H   0  0  0  0  0  0  0  0  0  0  0  0
   -8.4687   12.7723    0.3722 H   0  0  0  0  0  0  0  0  0  0  0  0
   -7.2522   12.2964    1.5847 H   0  0  0  0  0  0  0  0  0  0  0  0
   -2.9859   10.7022    0.0756 H   0  0  0  0  0  0  0  0  0  0  0  0
   -2.9274    8.2503    0.0696 H   0  0  0  0  0  0  0  0  0  0  0  0
   -7.2168    8.1840    0.0790 H   0  0  0  0  0  0  0  0  0  0  0  0
   -4.6349    1.3379    0.0316 H   0  0  0  0  0  0  0  0  0  0  0  0
   -2.4902    0.1379    0.0143 H   0  0  0  0  0  0  0  0  0  0  0  0
   -0.3961    3.8811    0.0353 H   0  0  0  0  0  0  0  0  0  0  0  0
   -2.5412    5.0807    0.0404 H   0  0  0  0  0  0  0  0  0  0  0  0
   -8.3624    9.7082   -1.6282 H   0  0  0  0  0  0  0  0  0  0  0  0
   -9.2220   11.2363   -1.3212 H   0  0  0  0  0  0  0  0  0  0  0  0
   -7.5816   11.2611   -2.0118 H   0  0  0  0  0  0  0  0  0  0  0  0
   -8.1645   10.0870    2.0597 H   0  0  0  0  0  0  0  0  0  0  0  0
   -9.5629   10.5496    1.0602 H   0  0  0  0  0  0  0  0  0  0  0  0
   -8.7006    9.0270    0.7341 H   0  0  0  0  0  0  0  0  0  0  0  0
   -5.5166   12.4730    2.2125 H   0  0  0  0  0  0  0  0  0  0  0  0
   -3.7808   12.3932    1.8267 H   0  0  0  0  0  0  0  0  0  0  0  0
   -4.6888   13.8964    1.5363 H   0  0  0  0  0  0  0  0  0  0  0  0
    1.1428    1.8996    0.0013 O   0  5  0  0  0  0  0  0  0  0  0  0
  1  2  1  0  0  0  0
  1 27  1  0  0  0  0
  1 28  1  0  0  0  0
  1 29  1  0  0  0  0
  2  7  1  0  0  0  0
  2  3  1  0  0  0  0
  2 26  1  0  0  0  0
  3  4  1  0  0  0  0
  3 30  1  0  0  0  0
  3 31  1  0  0  0  0
  4  5  1  0  0  0  0
  4 32  1  0  0  0  0
  4 33  1  0  0  0  0
  5  6  1  0  0  0  0
  5 24  1  0  0  0  0
  5 25  1  0  0  0  0
  6 11  2  0  0  0  0
  6  7  1  0  0  0  0
  7  8  2  0  0  0  0
  8  9  1  0  0  0  0
  8 34  1  0  0  0  0
  9 10  2  0  0  0  0
  9 35  1  0  0  0  0
 10 11  1  0  0  0  0
 10 12  1  0  0  0  0
 11 36  1  0  0  0  0
 12 13  3  0  0  0  0
 13 14  1  0  0  0  0
 14 15  2  0  0  0  0
 14 16  1  0  0  0  0
 16 21  2  0  0  0  0
 16 17  1  0  0  0  0
 17 18  2  0  0  0  0
 17 37  1  0  0  0  0
 18 19  1  0  0  0  0
 18 38  1  0  0  0  0
 19 20  2  0  0  0  0
 19 22  1  0  0  0  0
 20 21  1  0  0  0  0
 20 39  1  0  0  0  0
 21 40  1  0  0  0  0
 22 23  2  0  0  0  0
 22 50  1  0  0  0  0
 24 41  1  0  0  0  0
 24 42  1  0  0  0  0
 24 43  1  0  0  0  0
 25 44  1  0  0  0  0
 25 45  1  0  0  0  0
 25 46  1  0  0  0  0
 26 47  1  0  0  0  0
 26 48  1  0  0  0  0
 26 49  1  0  0  0  0
M  CHG  1  50  -1
M  END
$$$$
ZINC01550273
  -OEChem-08230709463D

 65 67  0     0  0  0  0  0  0999 V2000
    1.5313   -4.0158    2.6635 C   0  0  0  0  0  0  0  0  0  0  0  0
    1.5122   -2.4868    2.6125 C   0  0  0  0  0  0  0  0  0  0  0  0
    0.7713   -2.0276    1.3551 C   0  0  0  0  0  0  0  0  0  0  0  0
    0.7521   -0.4986    1.3042 C   0  0  0  0  0  0  0  0  0  0  0  0
    0.0112   -0.0394    0.0467 C   0  0  0  0  0  0  0  0  0  0  0  0
   -0.0079    1.4896   -0.0042 C   0  0  0  0  0  0  0  0  0  0  0  0
   -0.8230    2.0739    1.1717 C   0  0  0  0  0  0  0  0  0  0  0  0
   -1.5357    3.2743    0.5899 C   0  0  0  0  0  0  0  0  0  0  0  0
   -1.5329    3.2308   -0.7216 C   0  0  0  0  0  0  0  0  0  0  0  0
   -0.8193    1.9943   -1.2189 C   0  0  0  0  0  0  0  0  0  0  0  0
   -2.1606    4.2811   -1.6121 C   0  0  0  0  0  0  0  0  0  0  0  0
   -3.1251    5.1265   -0.7743 C   0  0  0  0  0  0  0  0  0  0  0  0
   -2.4080    5.5898    0.4978 C   0  0  0  0  0  0  0  0  0  0  0  0
   -2.1687    4.3801    1.4063 C   0  0  0  0  0  0  0  0  0  0  0  0
   -3.5029    3.8961    1.9777 C   0  0  0  0  0  0  0  0  0  0  0  0
   -1.2327    4.7723    2.5513 C   0  0  0  0  0  0  0  0  0  0  0  0
   -1.0671    5.1766   -2.1980 C   0  0  0  0  0  0  0  0  0  0  0  0
   -2.9303    3.5992   -2.7450 C   0  0  0  0  0  0  0  0  0  0  0  0
    1.3929    2.0451   -0.0206 C   0  0  0  0  0  0  0  0  0  0  0  0
    1.7588    2.7341   -0.9432 O   0  0  0  0  0  0  0  0  0  0  0  0
    2.2345    1.7742    0.9904 O   0  0  0  0  0  0  0  0  0  0  0  0
    3.5099    2.2230    0.8677 C   0  0  0  0  0  0  0  0  0  0  0  0
    4.5260    1.3382    0.5267 C   0  0  0  0  0  0  0  0  0  0  0  0
    5.8203    1.7902    0.3965 C   0  0  0  0  0  0  0  0  0  0  0  0
    6.1130    3.1388    0.6181 C   0  0  0  0  0  0  0  0  0  0  0  0
    5.0890    4.0241    0.9660 C   0  0  0  0  0  0  0  0  0  0  0  0
    3.7966    3.5648    1.0890 C   0  0  0  0  0  0  0  0  0  0  0  0
    7.4988    3.6265    0.4848 C   0  0  0  0  0  0  0  0  0  0  0  0
    7.7514    4.7992    0.6774 O   0  0  0  0  0  0  0  0  0  0  0  0
    2.0401   -4.4024    1.7804 H   0  0  0  0  0  0  0  0  0  0  0  0
    2.0591   -4.3429    3.5593 H   0  0  0  0  0  0  0  0  0  0  0  0
    0.5083   -4.3914    2.6870 H   0  0  0  0  0  0  0  0  0  0  0  0
    2.5351   -2.1112    2.5890 H   0  0  0  0  0  0  0  0  0  0  0  0
    1.0034   -2.1002    3.4956 H   0  0  0  0  0  0  0  0  0  0  0  0
   -0.2517   -2.4032    1.3786 H   0  0  0  0  0  0  0  0  0  0  0  0
    1.2800   -2.4142    0.4720 H   0  0  0  0  0  0  0  0  0  0  0  0
    1.7751   -0.1230    1.2806 H   0  0  0  0  0  0  0  0  0  0  0  0
    0.2433   -0.1120    2.1872 H   0  0  0  0  0  0  0  0  0  0  0  0
   -1.0118   -0.4150    0.0702 H   0  0  0  0  0  0  0  0  0  0  0  0
    0.5200   -0.4260   -0.8363 H   0  0  0  0  0  0  0  0  0  0  0  0
   -1.5457    1.3422    1.5328 H   0  0  0  0  0  0  0  0  0  0  0  0
   -0.1577    2.3812    1.9786 H   0  0  0  0  0  0  0  0  0  0  0  0
   -0.1515    2.2472   -2.0425 H   0  0  0  0  0  0  0  0  0  0  0  0
   -1.5398    1.2394   -1.5339 H   0  0  0  0  0  0  0  0  0  0  0  0
   -3.9954    4.5282   -0.5048 H   0  0  0  0  0  0  0  0  0  0  0  0
   -3.4428    5.9953   -1.3507 H   0  0  0  0  0  0  0  0  0  0  0  0
   -3.0263    6.3206    1.0192 H   0  0  0  0  0  0  0  0  0  0  0  0
   -1.4520    6.0418    0.2334 H   0  0  0  0  0  0  0  0  0  0  0  0
   -3.3320    3.0280    2.6144 H   0  0  0  0  0  0  0  0  0  0  0  0
   -3.9573    4.6938    2.5654 H   0  0  0  0  0  0  0  0  0  0  0  0
   -4.1700    3.6217    1.1605 H   0  0  0  0  0  0  0  0  0  0  0  0
   -0.2846    5.1213    2.1421 H   0  0  0  0  0  0  0  0  0  0  0  0
   -1.6903    5.5688    3.1381 H   0  0  0  0  0  0  0  0  0  0  0  0
   -1.0563    3.9064    3.1893 H   0  0  0  0  0  0  0  0  0  0  0  0
   -0.3763    4.5705   -2.7840 H   0  0  0  0  0  0  0  0  0  0  0  0
   -1.5211    5.9323   -2.8390 H   0  0  0  0  0  0  0  0  0  0  0  0
   -0.5249    5.6651   -1.3883 H   0  0  0  0  0  0  0  0  0  0  0  0
   -3.7120    2.9669   -2.3240 H   0  0  0  0  0  0  0  0  0  0  0  0
   -3.3816    4.3572   -3.3853 H   0  0  0  0  0  0  0  0  0  0  0  0
   -2.2457    2.9878   -3.3329 H   0  0  0  0  0  0  0  0  0  0  0  0
    4.2997    0.2955    0.3600 H   0  0  0  0  0  0  0  0  0  0  0  0
    6.6087    1.1028    0.1275 H   0  0  0  0  0  0  0  0  0  0  0  0
    5.3109    5.0670    1.1378 H   0  0  0  0  0  0  0  0  0  0  0  0
    3.0046    4.2483    1.3574 H   0  0  0  0  0  0  0  0  0  0  0  0
    8.4846    2.7714    0.1493 O   0  5  0  0  0  0  0  0  0  0  0  0
  1  2  1  0  0  0  0
  1 30  1  0  0  0  0
  1 31  1  0  0  0  0
  1 32  1  0  0  0  0
  2  3  1  0  0  0  0
  2 33  1  0  0  0  0
  2 34  1  0  0  0  0
  3  4  1  0  0  0  0
  3 35  1  0  0  0  0
  3 36  1  0  0  0  0
  4  5  1  0  0  0  0
  4 37  1  0  0  0  0
  4 38  1  0  0  0  0
  5  6  1  0  0  0  0
  5 39  1  0  0  0  0
  5 40  1  0  0  0  0
  6 10  1  0  0  0  0
  6  7  1  0  0  0  0
  6 19  1  0  0  0  0
  7  8  1  0  0  0  0
  7 41  1  0  0  0  0
  7 42  1  0  0  0  0
  8 14  1  0  0  0  0
  8  9  2  0  0  0  0
  9 10  1  0  0  0  0
  9 11  1  0  0  0  0
 10 43  1  0  0  0  0
 10 44  1  0  0  0  0
 11 12  1  0  0  0  0
 11 17  1  0  0  0  0
 11 18  1  0  0  0  0
 12 13  1  0  0  0  0
 12 45  1  0  0  0  0
 12 46  1  0  0  0  0
 13 14  1  0  0  0  0
 13 47  1  0  0  0  0
 13 48  1  0  0  0  0
 14 15  1  0  0  0  0
 14 16  1  0  0  0  0
 15 49  1  0  0  0  0
 15 50  1  0  0  0  0
 15 51  1  0  0  0  0
 16 52  1  0  0  0  0
 16 53  1  0  0  0  0
 16 54  1  0  0  0  0
 17 55  1  0  0  0  0
 17 56  1  0  0  0  0
 17 57  1  0  0  0  0
 18 58  1  0  0  0  0
 18 59  1  0  0  0  0
 18 60  1  0  0  0  0
 19 20  2  0  0  0  0
 19 21  1  0  0  0  0
 21 22  1  0  0  0  0
 22 27  2  0  0  0  0
 22 23  1  0  0  0  0
 23 24  2  0  0  0  0
 23 61  1  0  0  0  0
 24 25  1  0  0  0  0
 24 62  1  0  0  0  0
 25 26  2  0  0  0  0
 25 28  1  0  0  0  0
 26 27  1  0  0  0  0
 26 63  1  0  0  0  0
 27 64  1  0  0  0  0
 28 29  2  0  0  0  0
 28 65  1  0  0  0  0
M  CHG  1  65  -1
M  END
$$$$
ZINC01550514
  -OEChem-08230709463D

 54 56  0     0  0  0  0  0  0999 V2000
   -0.1352    4.2982    6.3821 C   0  0  0  0  0  0  0  0  0  0  0  0
   -0.3762    3.9751    4.9061 C   0  0  0  0  0  0  0  0  0  0  0  0
   -0.7739    2.5045    4.7643 C   0  0  0  0  0  0  0  0  0  0  0  0
   -1.0113    2.1863    3.3106 C   0  0  0  0  0  0  0  0  0  0  0  0
   -2.2451    2.2999    2.6347 C   0  0  0  0  0  0  0  0  0  0  0  0
   -2.0177    1.9115    1.3023 C   0  0  0  0  0  0  0  0  0  0  0  0
   -3.0958    1.9404    0.4066 C   0  0  0  0  0  0  0  0  0  0  0  0
   -4.2821    2.3359    0.8547 N   0  0  0  0  0  0  0  0  0  0  0  0
   -4.4536    2.6965    2.1150 C   0  0  0  0  0  0  0  0  0  0  0  0
   -3.4782    2.6794    2.9938 N   0  0  0  0  0  0  0  0  0  0  0  0
   -5.8241    3.1351    2.5627 C   0  0  0  0  0  0  0  0  0  0  0  0
   -6.6111    1.9210    3.0600 C   0  0  0  0  0  0  0  0  0  0  0  0
   -8.0024    2.3663    3.5146 C   0  0  0  0  0  0  0  0  0  0  0  0
   -8.7894    1.1522    4.0119 C   0  0  0  0  0  0  0  0  0  0  0  0
  -10.1599    1.5908    4.4596 C   0  0  0  0  0  0  0  0  0  0  0  0
  -10.4749    2.7551    4.3882 O   0  0  0  0  0  0  0  0  0  0  0  0
   -2.9280    1.5647   -0.9148 N   0  0  0  0  0  0  0  0  0  0  0  0
   -4.0339    1.7122   -1.8643 C   0  0  0  0  0  0  0  0  0  0  0  0
   -3.5950    1.2349   -3.2247 C   0  0  0  0  0  0  0  0  0  0  0  0
   -3.0228    2.1221   -4.1170 C   0  0  0  0  0  0  0  0  0  0  0  0
   -2.6153    1.6831   -5.3629 C   0  0  0  0  0  0  0  0  0  0  0  0
   -2.7900    0.3593   -5.7205 C   0  0  0  0  0  0  0  0  0  0  0  0
   -3.3674   -0.5267   -4.8302 C   0  0  0  0  0  0  0  0  0  0  0  0
   -3.7697   -0.0890   -3.5822 C   0  0  0  0  0  0  0  0  0  0  0  0
   -0.6947    1.5735    1.2095 N   0  0  0  0  0  0  0  0  0  0  0  0
   -0.1110    1.7610    2.4694 N   0  0  0  0  0  0  0  0  0  0  0  0
   -0.0082    1.1043    0.0033 C   0  0  0  0  0  0  0  0  0  0  0  0
    0.6657    3.6665    6.7662 H   0  0  0  0  0  0  0  0  0  0  0  0
    0.1481    5.3459    6.4831 H   0  0  0  0  0  0  0  0  0  0  0  0
   -1.0478    4.1124    6.9484 H   0  0  0  0  0  0  0  0  0  0  0  0
    0.5364    4.1609    4.3398 H   0  0  0  0  0  0  0  0  0  0  0  0
   -1.1772    4.6068    4.5220 H   0  0  0  0  0  0  0  0  0  0  0  0
   -1.6865    2.3187    5.3307 H   0  0  0  0  0  0  0  0  0  0  0  0
    0.0270    1.8728    5.1485 H   0  0  0  0  0  0  0  0  0  0  0  0
   -5.7275    3.8611    3.3700 H   0  0  0  0  0  0  0  0  0  0  0  0
   -6.3512    3.5915    1.7249 H   0  0  0  0  0  0  0  0  0  0  0  0
   -6.7076    1.1950    2.2527 H   0  0  0  0  0  0  0  0  0  0  0  0
   -6.0839    1.4646    3.8979 H   0  0  0  0  0  0  0  0  0  0  0  0
   -7.9059    3.0923    4.3219 H   0  0  0  0  0  0  0  0  0  0  0  0
   -8.5296    2.8227    2.6767 H   0  0  0  0  0  0  0  0  0  0  0  0
   -8.8860    0.4262    3.2046 H   0  0  0  0  0  0  0  0  0  0  0  0
   -8.2623    0.6958    4.8497 H   0  0  0  0  0  0  0  0  0  0  0  0
   -2.0782    1.2038   -1.2123 H   0  0  0  0  0  0  0  0  0  0  0  0
   -4.8836    1.1182   -1.5276 H   0  0  0  0  0  0  0  0  0  0  0  0
   -4.3245    2.7610   -1.9236 H   0  0  0  0  0  0  0  0  0  0  0  0
   -2.8904    3.1573   -3.8393 H   0  0  0  0  0  0  0  0  0  0  0  0
   -2.1640    2.3752   -6.0583 H   0  0  0  0  0  0  0  0  0  0  0  0
   -2.4751    0.0171   -6.6952 H   0  0  0  0  0  0  0  0  0  0  0  0
   -3.5039   -1.5610   -5.1096 H   0  0  0  0  0  0  0  0  0  0  0  0
   -4.2207   -0.7812   -2.8867 H   0  0  0  0  0  0  0  0  0  0  0  0
   -0.1527    0.0291   -0.1019 H   0  0  0  0  0  0  0  0  0  0  0  0
    1.0568    1.3217    0.0837 H   0  0  0  0  0  0  0  0  0  0  0  0
   -0.4181    1.6131   -0.8692 H   0  0  0  0  0  0  0  0  0  0  0  0
  -11.0307    0.6881    4.9376 O   0  5  0  0  0  0  0  0  0  0  0  0
  1  2  1  0  0  0  0
  1 28  1  0  0  0  0
  1 29  1  0  0  0  0
  1 30  1  0  0  0  0
  2  3  1  0  0  0  0
  2 31  1  0  0  0  0
  2 32  1  0  0  0  0
  3  4  1  0  0  0  0
  3 33  1  0  0  0  0
  3 34  1  0  0  0  0
  4 26  2  0  0  0  0
  4  5  1  0  0  0  0
  5 10  2  0  0  0  0
  5  6  1  0  0  0  0
  6  7  2  0  0  0  0
  6 25  1  0  0  0  0
  7  8  1  0  0  0  0
  7 17  1  0  0  0  0
  8  9  2  0  0  0  0
  9 10  1  0  0  0  0
  9 11  1  0  0  0  0
 11 12  1  0  0  0  0
 11 35  1  0  0  0  0
 11 36  1  0  0  0  0
 12 13  1  0  0  0  0
 12 37  1  0  0  0  0
 12 38  1  0  0  0  0
 13 14  1  0  0  0  0
 13 39  1  0  0  0  0
 13 40  1  0  0  0  0
 14 15  1  0  0  0  0
 14 41  1  0  0  0  0
 14 42  1  0  0  0  0
 15 16  2  0  0  0  0
 15 54  1  0  0  0  0
 17 18  1  0  0  0  0
 17 43  1  0  0  0  0
 18 19  1  0  0  0  0
 18 44  1  0  0  0  0
 18 45  1  0  0  0  0
 19 24  2  0  0  0  0
 19 20  1  0  0  0  0
 20 21  2  0  0  0  0
 20 46  1  0  0  0  0
 21 22  1  0  0  0  0
 21 47  1  0  0  0  0
 22 23  2  0  0  0  0
 22 48  1  0  0  0  0
 23 24  1  0  0  0  0
 23 49  1  0  0  0  0
 24 50  1  0  0  0  0
 25 26  1  0  0  0  0
 25 27  1  0  0  0  0
 27 51  1  0  0  0  0
 27 52  1  0  0  0  0
 27 53  1  0  0  0  0
M  CHG  1  54  -1
M  END
$$$$
ZINC01551013
  -OEChem-08230709463D

 50 52  0     0  0  0  0  0  0999 V2000
   -3.3527    3.4793    1.3037 C   0  0  0  0  0  0  0  0  0  0  0  0
   -2.5691    3.8732    0.0500 C   0  0  0  0  0  0  0  0  0  0  0  0
   -3.3764    3.4988   -1.1946 C   0  0  0  0  0  0  0  0  0  0  0  0
   -4.7150    4.2395   -1.1761 C   0  0  0  0  0  0  0  0  0  0  0  0
   -4.4628    5.7486   -1.1667 C   0  0  0  0  0  0  0  0  0  0  0  0
   -3.6555    6.1230    0.0779 C   0  0  0  0  0  0  0  0  0  0  0  0
   -2.3169    5.3823    0.0594 C   0  0  0  0  0  0  0  0  0  0  0  0
   -1.2506    3.1437    0.0318 C   0  0  0  0  0  0  0  0  0  0  0  0
   -0.0712    3.8548    0.0262 C   0  0  0  0  0  0  0  0  0  0  0  0
    1.1508    3.1774    0.0088 C   0  0  0  0  0  0  0  0  0  0  0  0
    1.1706    1.7798   -0.0028 C   0  0  0  0  0  0  0  0  0  0  0  0
   -0.0129    1.0764    0.0030 C   0  0  0  0  0  0  0  0  0  0  0  0
   -1.2265    1.7542    0.0145 C   0  0  0  0  0  0  0  0  0  0  0  0
   -2.3910    1.0571    0.0144 O   0  0  0  0  0  0  0  0  0  0  0  0
   -2.2937   -0.3685    0.0023 C   0  0  0  0  0  0  0  0  0  0  0  0
    2.4167    3.9352    0.0022 C   0  0  0  0  0  0  0  0  0  0  0  0
    2.3975    5.1513    0.0123 O   0  0  0  0  0  0  0  0  0  0  0  0
    3.9563    3.0786   -0.0203 S   0  0  0  0  0  0  0  0  0  0  0  0
    5.0624    4.4413   -0.1752 C   0  0  0  0  0  0  0  0  0  0  0  0
    5.3584    4.9559   -1.4344 C   0  0  0  0  0  0  0  0  0  0  0  0
    6.2174    6.0237   -1.5585 C   0  0  0  0  0  0  0  0  0  0  0  0
    6.8023    6.5846   -0.4188 C   0  0  0  0  0  0  0  0  0  0  0  0
    6.5072    6.0616    0.8441 C   0  0  0  0  0  0  0  0  0  0  0  0
    5.6429    4.9973    0.9614 C   0  0  0  0  0  0  0  0  0  0  0  0
    7.7274    7.7251   -0.5484 C   0  0  0  0  0  0  0  0  0  0  0  0
    8.2346    8.2117    0.4428 O   0  0  0  0  0  0  0  0  0  0  0  0
   -2.7776    3.7460    2.1904 H   0  0  0  0  0  0  0  0  0  0  0  0
   -4.3063    4.0070    1.3169 H   0  0  0  0  0  0  0  0  0  0  0  0
   -3.5324    2.4042    1.2970 H   0  0  0  0  0  0  0  0  0  0  0  0
   -2.8182    3.7795   -2.0877 H   0  0  0  0  0  0  0  0  0  0  0  0
   -3.5561    2.4237   -1.2013 H   0  0  0  0  0  0  0  0  0  0  0  0
   -5.2732    3.9589   -0.2830 H   0  0  0  0  0  0  0  0  0  0  0  0
   -5.2901    3.9728   -2.0628 H   0  0  0  0  0  0  0  0  0  0  0  0
   -5.4165    6.2762   -1.1535 H   0  0  0  0  0  0  0  0  0  0  0  0
   -3.9046    6.0292   -2.0599 H   0  0  0  0  0  0  0  0  0  0  0  0
   -4.2138    5.8423    0.9710 H   0  0  0  0  0  0  0  0  0  0  0  0
   -3.4758    7.1980    0.0846 H   0  0  0  0  0  0  0  0  0  0  0  0
   -1.7418    5.6490    0.9461 H   0  0  0  0  0  0  0  0  0  0  0  0
   -1.7587    5.6629   -0.8338 H   0  0  0  0  0  0  0  0  0  0  0  0
   -0.0908    4.9346    0.0348 H   0  0  0  0  0  0  0  0  0  0  0  0
    2.1131    1.2525   -0.0158 H   0  0  0  0  0  0  0  0  0  0  0  0
    0.0016   -0.0035   -0.0059 H   0  0  0  0  0  0  0  0  0  0  0  0
   -1.7607   -0.6887   -0.8930 H   0  0  0  0  0  0  0  0  0  0  0  0
   -1.7520   -0.7033    0.8869 H   0  0  0  0  0  0  0  0  0  0  0  0
   -3.2942   -0.8010    0.0036 H   0  0  0  0  0  0  0  0  0  0  0  0
    4.9100    4.5191   -2.3145 H   0  0  0  0  0  0  0  0  0  0  0  0
    6.4431    6.4253   -2.5353 H   0  0  0  0  0  0  0  0  0  0  0  0
    6.9569    6.4927    1.7263 H   0  0  0  0  0  0  0  0  0  0  0  0
    5.4143    4.5930    1.9365 H   0  0  0  0  0  0  0  0  0  0  0  0
    8.0107    8.2280   -1.7662 O   0  5  0  0  0  0  0  0  0  0  0  0
  1  2  1  0  0  0  0
  1 27  1  0  0  0  0
  1 28  1  0  0  0  0
  1 29  1  0  0  0  0
  2  7  1  0  0  0  0
  2  3  1  0  0  0  0
  2  8  1  0  0  0  0
  3  4  1  0  0  0  0
  3 30  1  0  0  0  0
  3 31  1  0  0  0  0
  4  5  1  0  0  0  0
  4 32  1  0  0  0  0
  4 33  1  0  0  0  0
  5  6  1  0  0  0  0
  5 34  1  0  0  0  0
  5 35  1  0  0  0  0
  6  7  1  0  0  0  0
  6 36  1  0  0  0  0
  6 37  1  0  0  0  0
  7 38  1  0  0  0  0
  7 39  1  0  0  0  0
  8 13  2  0  0  0  0
  8  9  1  0  0  0  0
  9 10  2  0  0  0  0
  9 40  1  0  0  0  0
 10 11  1  0  0  0  0
 10 16  1  0  0  0  0
 11 12  2  0  0  0  0
 11 41  1  0  0  0  0
 12 13  1  0  0  0  0
 12 42  1  0  0  0  0
 13 14  1  0  0  0  0
 14 15  1  0  0  0  0
 15 43  1  0  0  0  0
 15 44  1  0  0  0  0
 15 45  1  0  0  0  0
 16 17  2  0  0  0  0
 16 18  1  0  0  0  0
 18 19  1  0  0  0  0
 19 24  2  0  0  0  0
 19 20  1  0  0  0  0
 20 21  2  0  0  0  0
 20 46  1  0  0  0  0
 21 22  1  0  0  0  0
 21 47  1  0  0  0  0
 22 23  2  0  0  0  0
 22 25  1  0  0  0  0
 23 24  1  0  0  0  0
 23 48  1  0  0  0  0
 24 49  1  0  0  0  0
 25 26  2  0  0  0  0
 25 50  1  0  0  0  0
M  CHG  1  50  -1
M  END
$$$$
ZINC01551113
  -OEChem-08230709463D

 60 61  0     1  0  0  0  0  0999 V2000
    1.6774   -1.9420    6.3345 C   0  0  0  0  0  0  0  0  0  0  0  0
    1.0372   -0.5937    6.6707 C   0  0  0  0  0  0  0  0  0  0  0  0
    0.1642   -0.7406    7.9185 C   0  0  0  0  0  0  0  0  0  0  0  0
    2.1175    0.4244    6.9305 C   0  0  0  0  0  0  0  0  0  0  0  0
    2.3037    1.5664    6.2423 C   0  0  0  0  0  0  0  0  0  0  0  0
    3.4188    2.2286    6.8159 C   0  0  0  0  0  0  0  0  0  0  0  0
    3.8675    1.4466    7.8343 C   0  0  0  0  0  0  0  0  0  0  0  0
    3.0730    0.3425    7.9006 N   0  0  0  0  0  0  0  0  0  0  0  0
    3.2174   -0.7532    8.8623 C   0  0  0  0  0  0  0  0  0  0  0  0
    4.5964   -1.3958    8.7001 C   0  0  0  0  0  0  0  0  0  0  0  0
    3.0737   -0.2061   10.2840 C   0  0  0  0  0  0  0  0  0  0  0  0
    3.9888    3.5298    6.3860 C   0  0  0  0  0  0  0  0  0  0  0  0
    3.1777    4.6609    6.3221 C   0  0  0  0  0  0  0  0  0  0  0  0
    3.7131    5.8700    5.9273 C   0  0  0  0  0  0  0  0  0  0  0  0
    5.0523    5.9576    5.5839 C   0  0  0  0  0  0  0  0  0  0  0  0
    5.8611    4.8343    5.6405 C   0  0  0  0  0  0  0  0  0  0  0  0
    5.3352    3.6225    6.0396 C   0  0  0  0  0  0  0  0  0  0  0  0
    5.5711    7.1419    5.1921 F   0  0  0  0  0  0  0  0  0  0  0  0
    1.4761    2.0540    5.0811 C   0  0  0  0  0  0  0  0  0  0  0  0
    2.0705    1.5260    3.7738 C   0  0  0  0  0  0  0  0  0  0  0  0
    1.3053    2.1194    2.5893 C   0  0  1  0  0  0  0  0  0  0  0  0
    1.3108    3.2070    2.6612 H   0  0  0  0  0  0  0  0  0  0  0  0
    1.9763    1.6913    1.2826 C   0  0  0  0  0  0  0  0  0  0  0  0
    1.2878    2.3841    0.1049 C   0  0  1  0  0  0  0  0  0  0  0  0
    1.2939    3.4624    0.2637 H   0  0  0  0  0  0  0  0  0  0  0  0
    2.0357    2.0548   -1.1886 C   0  0  0  0  0  0  0  0  0  0  0  0
    1.4331    2.8335   -2.3294 C   0  0  0  0  0  0  0  0  0  0  0  0
    0.5011    3.5758   -2.1285 O   0  0  0  0  0  0  0  0  0  0  0  0
   -0.0617    1.9250    0.0050 O   0  0  0  0  0  0  0  0  0  0  0  0
   -0.0434    1.6475    2.6090 O   0  0  0  0  0  0  0  0  0  0  0  0
    2.2928   -2.2709    7.1718 H   0  0  0  0  0  0  0  0  0  0  0  0
    0.8960   -2.6784    6.1466 H   0  0  0  0  0  0  0  0  0  0  0  0
    2.2993   -1.8373    5.4455 H   0  0  0  0  0  0  0  0  0  0  0  0
    0.4217   -0.2648    5.8333 H   0  0  0  0  0  0  0  0  0  0  0  0
    0.7796   -1.0695    8.7559 H   0  0  0  0  0  0  0  0  0  0  0  0
   -0.2919    0.2200    8.1581 H   0  0  0  0  0  0  0  0  0  0  0  0
   -0.6172   -1.4770    7.7307 H   0  0  0  0  0  0  0  0  0  0  0  0
    4.7072    1.6635    8.4780 H   0  0  0  0  0  0  0  0  0  0  0  0
    2.4448   -1.5002    8.6807 H   0  0  0  0  0  0  0  0  0  0  0  0
    4.7038   -2.2110    9.4157 H   0  0  0  0  0  0  0  0  0  0  0  0
    4.6988   -1.7855    7.6873 H   0  0  0  0  0  0  0  0  0  0  0  0
    5.3690   -0.6487    8.8818 H   0  0  0  0  0  0  0  0  0  0  0  0
    2.0913    0.2517   10.3995 H   0  0  0  0  0  0  0  0  0  0  0  0
    3.1811   -1.0213   10.9995 H   0  0  0  0  0  0  0  0  0  0  0  0
    3.8464    0.5409   10.4656 H   0  0  0  0  0  0  0  0  0  0  0  0
    2.1325    4.5925    6.5854 H   0  0  0  0  0  0  0  0  0  0  0  0
    3.0862    6.7482    5.8818 H   0  0  0  0  0  0  0  0  0  0  0  0
    6.9045    4.9069    5.3715 H   0  0  0  0  0  0  0  0  0  0  0  0
    5.9663    2.7471    6.0831 H   0  0  0  0  0  0  0  0  0  0  0  0
    1.4770    3.1439    5.0666 H   0  0  0  0  0  0  0  0  0  0  0  0
    0.4531    1.6929    5.1870 H   0  0  0  0  0  0  0  0  0  0  0  0
    1.9899    0.4393    3.7508 H   0  0  0  0  0  0  0  0  0  0  0  0
    3.1198    1.8140    3.7095 H   0  0  0  0  0  0  0  0  0  0  0  0
    1.8922    0.6106    1.1681 H   0  0  0  0  0  0  0  0  0  0  0  0
    3.0289    1.9735    1.3053 H   0  0  0  0  0  0  0  0  0  0  0  0
    3.0862    2.3242   -1.0795 H   0  0  0  0  0  0  0  0  0  0  0  0
    1.9538    0.9874   -1.3939 H   0  0  0  0  0  0  0  0  0  0  0  0
   -0.1435    0.9720   -0.1372 H   0  0  0  0  0  0  0  0  0  0  0  0
   -0.1246    0.6858    2.5483 H   0  0  0  0  0  0  0  0  0  0  0  0
    1.9318    2.7026   -3.5687 O   0  5  0  0  0  0  0  0  0  0  0  0
  1  2  1  0  0  0  0
  1 31  1  0  0  0  0
  1 32  1  0  0  0  0
  1 33  1  0  0  0  0
  2  3  1  0  0  0  0
  2  4  1  0  0  0  0
  2 34  1  0  0  0  0
  3 35  1  0  0  0  0
  3 36  1  0  0  0  0
  3 37  1  0  0  0  0
  4  8  1  0  0  0  0
  4  5  2  0  0  0  0
  5  6  1  0  0  0  0
  5 19  1  0  0  0  0
  6  7  2  0  0  0  0
  6 12  1  0  0  0  0
  7  8  1  0  0  0  0
  7 38  1  0  0  0  0
  8  9  1  0  0  0  0
  9 10  1  0  0  0  0
  9 11  1  0  0  0  0
  9 39  1  0  0  0  0
 10 40  1  0  0  0  0
 10 41  1  0  0  0  0
 10 42  1  0  0  0  0
 11 43  1  0  0  0  0
 11 44  1  0  0  0  0
 11 45  1  0  0  0  0
 12 17  2  0  0  0  0
 12 13  1  0  0  0  0
 13 14  2  0  0  0  0
 13 46  1  0  0  0  0
 14 15  1  0  0  0  0
 14 47  1  0  0  0  0
 15 16  2  0  0  0  0
 15 18  1  0  0  0  0
 16 17  1  0  0  0  0
 16 48  1  0  0  0  0
 17 49  1  0  0  0  0
 19 20  1  0  0  0  0
 19 50  1  0  0  0  0
 19 51  1  0  0  0  0
 20 21  1  0  0  0  0
 20 52  1  0  0  0  0
 20 53  1  0  0  0  0
 21 22  1  0  0  0  0
 21 23  1  0  0  0  0
 21 30  1  0  0  0  0
 23 24  1  0  0  0  0
 23 54  1  0  0  0  0
 23 55  1  0  0  0  0
 24 25  1  0  0  0  0
 24 26  1  0  0  0  0
 24 29  1  0  0  0  0
 26 27  1  0  0  0  0
 26 56  1  0  0  0  0
 26 57  1  0  0  0  0
 27 28  2  0  0  0  0
 27 60  1  0  0  0  0
 29 58  1  0  0  0  0
 30 59  1  0  0  0  0
M  CHG  1  60  -1
M  END
$$$$
ZINC01551133
  -OEChem-08230709463D

 55 57  0     1  0  0  0  0  0999 V2000
   -1.8636    2.7379   -2.3674 C   0  0  0  0  0  0  0  0  0  0  0  0
   -2.3899    3.7641   -1.3973 C   0  0  0  0  0  0  0  0  0  0  0  0
   -3.7364    4.0364   -1.3487 C   0  0  0  0  0  0  0  0  0  0  0  0
   -4.2218    4.9835   -0.4533 C   0  0  0  0  0  0  0  0  0  0  0  0
   -3.3472    5.6542    0.3930 C   0  0  0  0  0  0  0  0  0  0  0  0
   -2.0045    5.3898    0.3534 C   0  0  0  0  0  0  0  0  0  0  0  0
   -1.5040    4.4409   -0.5412 C   0  0  0  0  0  0  0  0  0  0  0  0
   -0.0453    4.3225   -0.4091 C   0  0  0  0  0  0  0  0  0  0  0  0
    0.6694    3.5821   -1.0511 O   0  0  0  0  0  0  0  0  0  0  0  0
    0.4095    5.2822    0.6634 C   0  0  0  0  0  0  0  0  0  0  0  0
   -0.8665    5.9770    1.1579 C   0  0  0  0  0  0  0  0  0  0  0  0
   -3.8802    6.6788    1.3610 C   0  0  2  0  0  0  0  0  0  0  0  0
   -3.1932    6.7764    2.2016 H   0  0  0  0  0  0  0  0  0  0  0  0
   -5.2515    6.2326    1.8722 C   0  0  0  0  0  0  0  0  0  0  0  0
   -5.7371    7.2073    2.9470 C   0  0  0  0  0  0  0  0  0  0  0  0
   -7.1084    6.7611    3.4582 C   0  0  0  0  0  0  0  0  0  0  0  0
   -7.5939    7.7359    4.5329 C   0  0  0  0  0  0  0  0  0  0  0  0
   -8.9652    7.2896    5.0441 C   0  0  0  0  0  0  0  0  0  0  0  0
   -9.4434    8.2497    6.1027 C   0  0  0  0  0  0  0  0  0  0  0  0
   -8.7578    9.1940    6.4161 O   0  0  0  0  0  0  0  0  0  0  0  0
   -4.0124    8.0080    0.6633 C   0  0  0  0  0  0  0  0  0  0  0  0
   -4.8544    8.1358   -0.4256 C   0  0  0  0  0  0  0  0  0  0  0  0
   -4.9800    9.3555   -1.0632 C   0  0  0  0  0  0  0  0  0  0  0  0
   -4.2542   10.4471   -0.6175 C   0  0  0  0  0  0  0  0  0  0  0  0
   -3.4071   10.3166    0.4700 C   0  0  0  0  0  0  0  0  0  0  0  0
   -3.2871    9.0972    1.1093 C   0  0  0  0  0  0  0  0  0  0  0  0
   -4.3726   11.6387   -1.2430 F   0  0  0  0  0  0  0  0  0  0  0  0
   -5.5506    5.2532   -0.4065 O   0  0  0  0  0  0  0  0  0  0  0  0
   -4.6860    3.3102   -2.2662 C   0  0  0  0  0  0  0  0  0  0  0  0
   -1.8610    1.7568   -1.8926 H   0  0  0  0  0  0  0  0  0  0  0  0
   -2.5015    2.7123   -3.2509 H   0  0  0  0  0  0  0  0  0  0  0  0
   -0.8476    3.0025   -2.6604 H   0  0  0  0  0  0  0  0  0  0  0  0
    0.8639    4.7737    1.3948 H   0  0  0  0  0  0  0  0  0  0  0  0
    1.1008    6.0145    0.2463 H   0  0  0  0  0  0  0  0  0  0  0  0
   -1.0149    5.7765    2.2190 H   0  0  0  0  0  0  0  0  0  0  0  0
   -0.7991    7.0511    0.9851 H   0  0  0  0  0  0  0  0  0  0  0  0
   -5.9613    6.2207    1.0451 H   0  0  0  0  0  0  0  0  0  0  0  0
   -5.1727    5.2322    2.2979 H   0  0  0  0  0  0  0  0  0  0  0  0
   -5.0272    7.2193    3.7741 H   0  0  0  0  0  0  0  0  0  0  0  0
   -5.8159    8.2077    2.5213 H   0  0  0  0  0  0  0  0  0  0  0  0
   -7.8182    6.7492    2.6311 H   0  0  0  0  0  0  0  0  0  0  0  0
   -7.0296    5.7608    3.8838 H   0  0  0  0  0  0  0  0  0  0  0  0
   -6.8841    7.7478    5.3600 H   0  0  0  0  0  0  0  0  0  0  0  0
   -7.6727    8.7362    4.1073 H   0  0  0  0  0  0  0  0  0  0  0  0
   -9.6750    7.2777    4.2170 H   0  0  0  0  0  0  0  0  0  0  0  0
   -8.8864    6.2893    5.4698 H   0  0  0  0  0  0  0  0  0  0  0  0
   -5.4173    7.2832   -0.7756 H   0  0  0  0  0  0  0  0  0  0  0  0
   -5.6410    9.4561   -1.9114 H   0  0  0  0  0  0  0  0  0  0  0  0
   -2.8402   11.1673    0.8183 H   0  0  0  0  0  0  0  0  0  0  0  0
   -2.6262    8.9951    1.9573 H   0  0  0  0  0  0  0  0  0  0  0  0
   -5.8488    5.8793   -1.0803 H   0  0  0  0  0  0  0  0  0  0  0  0
   -4.7911    3.8688   -3.1963 H   0  0  0  0  0  0  0  0  0  0  0  0
   -4.2942    2.3162   -2.4817 H   0  0  0  0  0  0  0  0  0  0  0  0
   -5.6596    3.2205   -1.7844 H   0  0  0  0  0  0  0  0  0  0  0  0
  -10.6311    8.0559    6.6974 O   0  5  0  0  0  0  0  0  0  0  0  0
  1  2  1  0  0  0  0
  1 30  1  0  0  0  0
  1 31  1  0  0  0  0
  1 32  1  0  0  0  0
  2  7  2  0  0  0  0
  2  3  1  0  0  0  0
  3  4  2  0  0  0  0
  3 29  1  0  0  0  0
  4  5  1  0  0  0  0
  4 28  1  0  0  0  0
  5  6  2  0  0  0  0
  5 12  1  0  0  0  0
  6 11  1  0  0  0  0
  6  7  1  0  0  0  0
  7  8  1  0  0  0  0
  8  9  2  0  0  0  0
  8 10  1  0  0  0  0
 10 11  1  0  0  0  0
 10 33  1  0  0  0  0
 10 34  1  0  0  0  0
 11 35  1  0  0  0  0
 11 36  1  0  0  0  0
 12 13  1  0  0  0  0
 12 14  1  0  0  0  0
 12 21  1  0  0  0  0
 14 15  1  0  0  0  0
 14 37  1  0  0  0  0
 14 38  1  0  0  0  0
 15 16  1  0  0  0  0
 15 39  1  0  0  0  0
 15 40  1  0  0  0  0
 16 17  1  0  0  0  0
 16 41  1  0  0  0  0
 16 42  1  0  0  0  0
 17 18  1  0  0  0  0
 17 43  1  0  0  0  0
 17 44  1  0  0  0  0
 18 19  1  0  0  0  0
 18 45  1  0  0  0  0
 18 46  1  0  0  0  0
 19 20  2  0  0  0  0
 19 55  1  0  0  0  0
 21 26  2  0  0  0  0
 21 22  1  0  0  0  0
 22 23  2  0  0  0  0
 22 47  1  0  0  0  0
 23 24  1  0  0  0  0
 23 48  1  0  0  0  0
 24 25  2  0  0  0  0
 24 27  1  0  0  0  0
 25 26  1  0  0  0  0
 25 49  1  0  0  0  0
 26 50  1  0  0  0  0
 28 51  1  0  0  0  0
 29 52  1  0  0  0  0
 29 53  1  0  0  0  0
 29 54  1  0  0  0  0
M  CHG  1  55  -1
M  END
$$$$
ZINC01551134
  -OEChem-08230709463D

 56 58  0     1  0  0  0  0  0999 V2000
    2.9870    2.4189   -0.5231 C   0  0  0  0  0  0  0  0  0  0  0  0
    1.5140    2.6186   -0.2751 C   0  0  0  0  0  0  0  0  0  0  0  0
    1.0901    3.2772    0.8678 C   0  0  0  0  0  0  0  0  0  0  0  0
   -0.2609    3.4613    1.0970 C   0  0  0  0  0  0  0  0  0  0  0  0
   -1.1865    2.9918    0.1812 C   0  0  0  0  0  0  0  0  0  0  0  0
   -0.7630    2.3279   -0.9594 C   0  0  0  0  0  0  0  0  0  0  0  0
    0.5933    2.1443   -1.1872 C   0  0  0  0  0  0  0  0  0  0  0  0
    1.0602    1.4287   -2.4285 C   0  0  2  0  0  0  0  0  0  0  0  0
    2.1475    1.4766   -2.4883 H   0  0  0  0  0  0  0  0  0  0  0  0
    0.4516    2.0981   -3.6624 C   0  0  0  0  0  0  0  0  0  0  0  0
    1.0222    1.4522   -4.9266 C   0  0  0  0  0  0  0  0  0  0  0  0
    0.4136    2.1216   -6.1605 C   0  0  0  0  0  0  0  0  0  0  0  0
    0.9841    1.4757   -7.4247 C   0  0  0  0  0  0  0  0  0  0  0  0
    0.3755    2.1450   -8.6586 C   0  0  0  0  0  0  0  0  0  0  0  0
    0.9375    1.5088   -9.9038 C   0  0  0  0  0  0  0  0  0  0  0  0
    1.7422    0.6121   -9.8136 O   0  0  0  0  0  0  0  0  0  0  0  0
    0.6232   -0.0124   -2.3719 C   0  0  0  0  0  0  0  0  0  0  0  0
   -0.2994   -0.4178   -1.4256 C   0  0  0  0  0  0  0  0  0  0  0  0
   -0.7051   -1.7379   -1.3764 C   0  0  0  0  0  0  0  0  0  0  0  0
   -0.1783   -2.6572   -2.2678 C   0  0  0  0  0  0  0  0  0  0  0  0
    0.7500   -2.2512   -3.2115 C   0  0  0  0  0  0  0  0  0  0  0  0
    1.1496   -0.9292   -3.2627 C   0  0  0  0  0  0  0  0  0  0  0  0
   -0.5693   -3.9493   -2.2165 F   0  0  0  0  0  0  0  0  0  0  0  0
   -1.6734    1.8631   -1.8549 O   0  0  0  0  0  0  0  0  0  0  0  0
   -2.6588    3.1978    0.4277 C   0  0  0  0  0  0  0  0  0  0  0  0
   -0.4622    4.2020    2.4017 C   0  0  0  0  0  0  0  0  0  0  0  0
    0.9092    4.8323    2.7241 C   0  0  0  0  0  0  0  0  0  0  0  0
    1.8884    3.8818    2.0031 C   0  0  0  0  0  0  0  0  0  0  0  0
    3.3532    3.2022   -1.1867 H   0  0  0  0  0  0  0  0  0  0  0  0
    3.5244    2.4646    0.4242 H   0  0  0  0  0  0  0  0  0  0  0  0
    3.1488    1.4455   -0.9860 H   0  0  0  0  0  0  0  0  0  0  0  0
   -0.6310    1.9725   -3.6471 H   0  0  0  0  0  0  0  0  0  0  0  0
    0.6942    3.1607   -3.6561 H   0  0  0  0  0  0  0  0  0  0  0  0
    2.1048    1.5778   -4.9419 H   0  0  0  0  0  0  0  0  0  0  0  0
    0.7796    0.3895   -4.9329 H   0  0  0  0  0  0  0  0  0  0  0  0
   -0.6691    1.9959   -6.1452 H   0  0  0  0  0  0  0  0  0  0  0  0
    0.6562    3.1842   -6.1542 H   0  0  0  0  0  0  0  0  0  0  0  0
    2.0668    1.6013   -7.4400 H   0  0  0  0  0  0  0  0  0  0  0  0
    0.7415    0.4130   -7.4310 H   0  0  0  0  0  0  0  0  0  0  0  0
   -0.7071    2.0194   -8.6433 H   0  0  0  0  0  0  0  0  0  0  0  0
    0.6181    3.2077   -8.6523 H   0  0  0  0  0  0  0  0  0  0  0  0
   -0.7064    0.2984   -0.7271 H   0  0  0  0  0  0  0  0  0  0  0  0
   -1.4290   -2.0535   -0.6396 H   0  0  0  0  0  0  0  0  0  0  0  0
    1.1618   -2.9674   -3.9071 H   0  0  0  0  0  0  0  0  0  0  0  0
    1.8736   -0.6124   -3.9988 H   0  0  0  0  0  0  0  0  0  0  0  0
   -2.0481    1.0021   -1.6239 H   0  0  0  0  0  0  0  0  0  0  0  0
   -3.0543    2.3536    0.9925 H   0  0  0  0  0  0  0  0  0  0  0  0
   -2.8070    4.1163    0.9957 H   0  0  0  0  0  0  0  0  0  0  0  0
   -3.1801    3.2727   -0.5266 H   0  0  0  0  0  0  0  0  0  0  0  0
   -1.2171    4.9793    2.2828 H   0  0  0  0  0  0  0  0  0  0  0  0
   -0.7540    3.5077    3.1897 H   0  0  0  0  0  0  0  0  0  0  0  0
    0.9775    5.8409    2.3166 H   0  0  0  0  0  0  0  0  0  0  0  0
    1.0902    4.8374    3.7990 H   0  0  0  0  0  0  0  0  0  0  0  0
    2.2284    3.1014    2.6839 H   0  0  0  0  0  0  0  0  0  0  0  0
    2.7388    4.4404    1.6120 H   0  0  0  0  0  0  0  0  0  0  0  0
    0.5441    1.9384  -11.1131 O   0  5  0  0  0  0  0  0  0  0  0  0
  1  2  1  0  0  0  0
  1 29  1  0  0  0  0
  1 30  1  0  0  0  0
  1 31  1  0  0  0  0
  2  7  2  0  0  0  0
  2  3  1  0  0  0  0
  3 28  1  0  0  0  0
  3  4  2  0  0  0  0
  4  5  1  0  0  0  0
  4 26  1  0  0  0  0
  5  6  2  0  0  0  0
  5 25  1  0  0  0  0
  6  7  1  0  0  0  0
  6 24  1  0  0  0  0
  7  8  1  0  0  0  0
  8  9  1  0  0  0  0
  8 10  1  0  0  0  0
  8 17  1  0  0  0  0
 10 11  1  0  0  0  0
 10 32  1  0  0  0  0
 10 33  1  0  0  0  0
 11 12  1  0  0  0  0
 11 34  1  0  0  0  0
 11 35  1  0  0  0  0
 12 13  1  0  0  0  0
 12 36  1  0  0  0  0
 12 37  1  0  0  0  0
 13 14  1  0  0  0  0
 13 38  1  0  0  0  0
 13 39  1  0  0  0  0
 14 15  1  0  0  0  0
 14 40  1  0  0  0  0
 14 41  1  0  0  0  0
 15 16  2  0  0  0  0
 15 56  1  0  0  0  0
 17 22  2  0  0  0  0
 17 18  1  0  0  0  0
 18 19  2  0  0  0  0
 18 42  1  0  0  0  0
 19 20  1  0  0  0  0
 19 43  1  0  0  0  0
 20 21  2  0  0  0  0
 20 23  1  0  0  0  0
 21 22  1  0  0  0  0
 21 44  1  0  0  0  0
 22 45  1  0  0  0  0
 24 46  1  0  0  0  0
 25 47  1  0  0  0  0
 25 48  1  0  0  0  0
 25 49  1  0  0  0  0
 26 27  1  0  0  0  0
 26 50  1  0  0  0  0
 26 51  1  0  0  0  0
 27 28  1  0  0  0  0
 27 52  1  0  0  0  0
 27 53  1  0  0  0  0
 28 54  1  0  0  0  0
 28 55  1  0  0  0  0
M  CHG  1  56  -1
M  END
$$$$
ZINC01551431
  -OEChem-08230709463D

 56 58  0     0  0  0  0  0  0999 V2000
   -7.3648    3.7160    4.8320 C   0  0  0  0  0  0  0  0  0  0  0  0
   -6.0275    3.3282    4.2555 C   0  0  0  0  0  0  0  0  0  0  0  0
   -4.8936    3.3852    5.0467 C   0  0  0  0  0  0  0  0  0  0  0  0
   -3.6675    3.0257    4.5270 C   0  0  0  0  0  0  0  0  0  0  0  0
   -3.5702    2.6153    3.1963 C   0  0  0  0  0  0  0  0  0  0  0  0
   -4.7175    2.5601    2.4038 C   0  0  0  0  0  0  0  0  0  0  0  0
   -5.9389    2.9165    2.9378 C   0  0  0  0  0  0  0  0  0  0  0  0
   -7.1790    2.8575    2.0836 C   0  0  0  0  0  0  0  0  0  0  0  0
   -2.2583    2.2350    2.6308 C   0  0  0  0  0  0  0  0  0  0  0  0
   -1.1146    2.2458    3.2739 N   0  0  0  0  0  0  0  0  0  0  0  0
   -0.1481    1.8389    2.4370 C   0  0  0  0  0  0  0  0  0  0  0  0
   -0.7181    1.5718    1.2479 C   0  0  0  0  0  0  0  0  0  0  0  0
   -2.0362    1.8252    1.3699 O   0  0  0  0  0  0  0  0  0  0  0  0
   -0.0127    1.0858    0.0080 C   0  0  0  0  0  0  0  0  0  0  0  0
    1.3155    1.7046    2.7698 C   0  0  0  0  0  0  0  0  0  0  0  0
    2.0298    3.0242    2.4709 C   0  0  0  0  0  0  0  0  0  0  0  0
    3.5157    2.8877    2.8088 C   0  0  0  0  0  0  0  0  0  0  0  0
    4.2300    4.2074    2.5099 C   0  0  0  0  0  0  0  0  0  0  0  0
    5.7159    4.0709    2.8478 C   0  0  0  0  0  0  0  0  0  0  0  0
    5.8828    3.8701    4.3580 C   0  0  0  0  0  0  0  0  0  0  0  0
    5.4488    5.0538    5.0347 O   0  0  0  0  0  0  0  0  0  0  0  0
    6.1506    6.2345    4.6379 C   0  0  0  0  0  0  0  0  0  0  0  0
    5.9857    6.4372    3.2324 O   0  0  0  0  0  0  0  0  0  0  0  0
    6.4561    5.3474    2.4333 C   0  0  0  0  0  0  0  0  0  0  0  0
    7.6381    6.0759    4.9593 C   0  0  0  0  0  0  0  0  0  0  0  0
    5.5992    7.4216    5.3848 C   0  0  0  0  0  0  0  0  0  0  0  0
    5.0339    8.3042    4.7836 O   0  0  0  0  0  0  0  0  0  0  0  0
   -7.8427    2.8369    5.2644 H   0  0  0  0  0  0  0  0  0  0  0  0
   -7.2219    4.4697    5.6063 H   0  0  0  0  0  0  0  0  0  0  0  0
   -7.9970    4.1217    4.0422 H   0  0  0  0  0  0  0  0  0  0  0  0
   -4.9696    3.7072    6.0748 H   0  0  0  0  0  0  0  0  0  0  0  0
   -2.7840    3.0664    5.1468 H   0  0  0  0  0  0  0  0  0  0  0  0
   -4.6495    2.2395    1.3748 H   0  0  0  0  0  0  0  0  0  0  0  0
   -7.6336    1.8707    2.1707 H   0  0  0  0  0  0  0  0  0  0  0  0
   -7.8875    3.6149    2.4189 H   0  0  0  0  0  0  0  0  0  0  0  0
   -6.9127    3.0443    1.0432 H   0  0  0  0  0  0  0  0  0  0  0  0
    0.0021   -0.0041    0.0020 H   0  0  0  0  0  0  0  0  0  0  0  0
    1.0099    1.4631    0.0003 H   0  0  0  0  0  0  0  0  0  0  0  0
   -0.5399    1.4469   -0.8751 H   0  0  0  0  0  0  0  0  0  0  0  0
    1.4270    1.4624    3.8267 H   0  0  0  0  0  0  0  0  0  0  0  0
    1.7538    0.9094    2.1667 H   0  0  0  0  0  0  0  0  0  0  0  0
    1.9182    3.2664    1.4140 H   0  0  0  0  0  0  0  0  0  0  0  0
    1.5915    3.8193    3.0741 H   0  0  0  0  0  0  0  0  0  0  0  0
    3.6272    2.6455    3.8657 H   0  0  0  0  0  0  0  0  0  0  0  0
    3.9540    2.0926    2.2056 H   0  0  0  0  0  0  0  0  0  0  0  0
    4.1184    4.4495    1.4530 H   0  0  0  0  0  0  0  0  0  0  0  0
    3.7917    5.0025    3.1130 H   0  0  0  0  0  0  0  0  0  0  0  0
    6.1346    3.2169    2.3154 H   0  0  0  0  0  0  0  0  0  0  0  0
    5.2792    3.0224    4.6822 H   0  0  0  0  0  0  0  0  0  0  0  0
    6.9317    3.6823    4.5874 H   0  0  0  0  0  0  0  0  0  0  0  0
    7.5267    5.2155    2.5899 H   0  0  0  0  0  0  0  0  0  0  0  0
    6.2625    5.5561    1.3812 H   0  0  0  0  0  0  0  0  0  0  0  0
    8.1731    6.9761    4.6568 H   0  0  0  0  0  0  0  0  0  0  0  0
    7.7638    5.9214    6.0309 H   0  0  0  0  0  0  0  0  0  0  0  0
    8.0370    5.2173    4.4191 H   0  0  0  0  0  0  0  0  0  0  0  0
    5.7358    7.4984    6.7179 O   0  5  0  0  0  0  0  0  0  0  0  0
  1  2  1  0  0  0  0
  1 28  1  0  0  0  0
  1 29  1  0  0  0  0
  1 30  1  0  0  0  0
  2  7  2  0  0  0  0
  2  3  1  0  0  0  0
  3  4  2  0  0  0  0
  3 31  1  0  0  0  0
  4  5  1  0  0  0  0
  4 32  1  0  0  0  0
  5  6  2  0  0  0  0
  5  9  1  0  0  0  0
  6  7  1  0  0  0  0
  6 33  1  0  0  0  0
  7  8  1  0  0  0  0
  8 34  1  0  0  0  0
  8 35  1  0  0  0  0
  8 36  1  0  0  0  0
  9 13  1  0  0  0  0
  9 10  2  0  0  0  0
 10 11  1  0  0  0  0
 11 12  2  0  0  0  0
 11 15  1  0  0  0  0
 12 13  1  0  0  0  0
 12 14  1  0  0  0  0
 14 37  1  0  0  0  0
 14 38  1  0  0  0  0
 14 39  1  0  0  0  0
 15 16  1  0  0  0  0
 15 40  1  0  0  0  0
 15 41  1  0  0  0  0
 16 17  1  0  0  0  0
 16 42  1  0  0  0  0
 16 43  1  0  0  0  0
 17 18  1  0  0  0  0
 17 44  1  0  0  0  0
 17 45  1  0  0  0  0
 18 19  1  0  0  0  0
 18 46  1  0  0  0  0
 18 47  1  0  0  0  0
 19 24  1  0  0  0  0
 19 20  1  0  0  0  0
 19 48  1  0  0  0  0
 20 21  1  0  0  0  0
 20 49  1  0  0  0  0
 20 50  1  0  0  0  0
 21 22  1  0  0  0  0
 22 23  1  0  0  0  0
 22 25  1  0  0  0  0
 22 26  1  0  0  0  0
 23 24  1  0  0  0  0
 24 51  1  0  0  0  0
 24 52  1  0  0  0  0
 25 53  1  0  0  0  0
 25 54  1  0  0  0  0
 25 55  1  0  0  0  0
 26 27  2  0  0  0  0
 26 56  1  0  0  0  0
M  CHG  1  56  -1
M  END
$$$$
ZINC01551605
  -OEChem-08230709463D

 58 60  0     1  0  0  0  0  0999 V2000
    0.6233   -5.0654    5.5683 C   0  0  0  0  0  0  0  0  0  0  0  0
    0.4786   -4.8308    4.0867 C   0  0  0  0  0  0  0  0  0  0  0  0
   -0.6142   -4.2504    3.6329 N   0  0  0  0  0  0  0  0  0  0  0  0
   -0.7742   -4.0239    2.3389 C   0  0  0  0  0  0  0  0  0  0  0  0
    0.2215   -4.4154    1.4578 C   0  0  0  0  0  0  0  0  0  0  0  0
    1.3536   -5.0274    1.9722 C   0  0  0  0  0  0  0  0  0  0  0  0
    1.4458   -5.2165    3.2787 N   0  0  0  0  0  0  0  0  0  0  0  0
    0.0763   -4.1817   -0.0238 C   0  0  2  0  0  0  0  0  0  0  0  0
    0.9596   -4.5587   -0.5394 H   0  0  0  0  0  0  0  0  0  0  0  0
   -0.0696   -2.6824   -0.2918 C   0  0  0  0  0  0  0  0  0  0  0  0
    1.2123   -1.9797    0.0743 C   0  0  0  0  0  0  0  0  0  0  0  0
    2.1467   -2.6130    0.5053 O   0  0  0  0  0  0  0  0  0  0  0  0
   -1.1650   -4.9146   -0.5365 C   0  0  0  0  0  0  0  0  0  0  0  0
   -0.9550   -6.4247   -0.4085 C   0  0  0  0  0  0  0  0  0  0  0  0
   -2.1377   -7.1597   -1.0424 C   0  0  0  0  0  0  0  0  0  0  0  0
   -1.9277   -8.6698   -0.9144 C   0  0  0  0  0  0  0  0  0  0  0  0
   -3.1104   -9.4047   -1.5482 C   0  0  0  0  0  0  0  0  0  0  0  0
   -2.9004  -10.9148   -1.4202 C   0  0  0  0  0  0  0  0  0  0  0  0
   -4.0654  -11.6388   -2.0446 C   0  0  0  0  0  0  0  0  0  0  0  0
   -3.8362  -12.5744   -3.0337 C   0  0  0  0  0  0  0  0  0  0  0  0
   -4.9141  -13.2394   -3.6005 C   0  0  0  0  0  0  0  0  0  0  0  0
   -6.1911  -12.9313   -3.1596 C   0  0  0  0  0  0  0  0  0  0  0  0
   -6.3489  -11.9776   -2.1638 C   0  0  0  0  0  0  0  0  0  0  0  0
   -7.6179  -11.6481   -1.6915 N   0  0  0  0  0  0  0  0  0  0  0  0
   -8.7963  -12.0822   -2.4532 C   0  0  0  0  0  0  0  0  0  0  0  0
   -8.5853  -13.5485   -2.8524 C   0  0  0  0  0  0  0  0  0  0  0  0
   -7.3689  -13.6374   -3.7745 C   0  0  0  0  0  0  0  0  0  0  0  0
    0.2259   -6.7885   -1.0646 F   0  0  0  0  0  0  0  0  0  0  0  0
   -0.8623   -6.7696    0.9441 F   0  0  0  0  0  0  0  0  0  0  0  0
    1.1089   -4.2040    6.0268 H   0  0  0  0  0  0  0  0  0  0  0  0
   -0.3624   -5.2057    6.0119 H   0  0  0  0  0  0  0  0  0  0  0  0
    1.2282   -5.9562    5.7377 H   0  0  0  0  0  0  0  0  0  0  0  0
   -1.6704   -3.5444    1.9740 H   0  0  0  0  0  0  0  0  0  0  0  0
    2.1497   -5.3461    1.3156 H   0  0  0  0  0  0  0  0  0  0  0  0
   -0.2833   -2.5213   -1.3484 H   0  0  0  0  0  0  0  0  0  0  0  0
   -0.8869   -2.2838    0.3092 H   0  0  0  0  0  0  0  0  0  0  0  0
   -2.0321   -4.6171    0.0532 H   0  0  0  0  0  0  0  0  0  0  0  0
   -1.3320   -4.6584   -1.5828 H   0  0  0  0  0  0  0  0  0  0  0  0
   -3.0578   -6.8762   -0.5313 H   0  0  0  0  0  0  0  0  0  0  0  0
   -2.2100   -6.8909   -2.0963 H   0  0  0  0  0  0  0  0  0  0  0  0
   -1.0076   -8.9532   -1.4255 H   0  0  0  0  0  0  0  0  0  0  0  0
   -1.8555   -8.9385    0.1395 H   0  0  0  0  0  0  0  0  0  0  0  0
   -4.0305   -9.1213   -1.0371 H   0  0  0  0  0  0  0  0  0  0  0  0
   -3.1827   -9.1360   -2.6021 H   0  0  0  0  0  0  0  0  0  0  0  0
   -1.9803  -11.1983   -1.9314 H   0  0  0  0  0  0  0  0  0  0  0  0
   -2.8282  -11.1836   -0.3664 H   0  0  0  0  0  0  0  0  0  0  0  0
   -2.8292  -12.7890   -3.3598 H   0  0  0  0  0  0  0  0  0  0  0  0
   -4.7611  -13.9789   -4.3726 H   0  0  0  0  0  0  0  0  0  0  0  0
   -7.7214  -11.1393   -0.8721 H   0  0  0  0  0  0  0  0  0  0  0  0
   -9.6890  -11.9932   -1.8341 H   0  0  0  0  0  0  0  0  0  0  0  0
   -8.9047  -11.4677   -3.3469 H   0  0  0  0  0  0  0  0  0  0  0  0
   -8.4115  -14.1489   -1.9594 H   0  0  0  0  0  0  0  0  0  0  0  0
   -9.4692  -13.9162   -3.3735 H   0  0  0  0  0  0  0  0  0  0  0  0
   -7.1161  -14.6851   -3.9378 H   0  0  0  0  0  0  0  0  0  0  0  0
   -7.6065  -13.1708   -4.7305 H   0  0  0  0  0  0  0  0  0  0  0  0
    1.3160   -0.6501   -0.0785 O   0  5  0  0  0  0  0  0  0  0  0  0
   -5.3024  -11.3122   -1.5860 N   0  3  0  0  0  0  0  0  0  0  0  0
   -5.4429  -10.6092   -0.8510 H   0  0  0  0  0  0  0  0  0  0  0  0
  1  2  1  0  0  0  0
  1 30  1  0  0  0  0
  1 31  1  0  0  0  0
  1 32  1  0  0  0  0
  2  7  2  0  0  0  0
  2  3  1  0  0  0  0
  3  4  2  0  0  0  0
  4  5  1  0  0  0  0
  4 33  1  0  0  0  0
  5  6  2  0  0  0  0
  5  8  1  0  0  0  0
  6  7  1  0  0  0  0
  6 34  1  0  0  0  0
  8  9  1  0  0  0  0
  8 10  1  0  0  0  0
  8 13  1  0  0  0  0
 10 11  1  0  0  0  0
 10 35  1  0  0  0  0
 10 36  1  0  0  0  0
 11 12  2  0  0  0  0
 11 56  1  0  0  0  0
 13 14  1  0  0  0  0
 13 37  1  0  0  0  0
 13 38  1  0  0  0  0
 14 15  1  0  0  0  0
 14 28  1  0  0  0  0
 14 29  1  0  0  0  0
 15 16  1  0  0  0  0
 15 39  1  0  0  0  0
 15 40  1  0  0  0  0
 16 17  1  0  0  0  0
 16 41  1  0  0  0  0
 16 42  1  0  0  0  0
 17 18  1  0  0  0  0
 17 43  1  0  0  0  0
 17 44  1  0  0  0  0
 18 19  1  0  0  0  0
 18 45  1  0  0  0  0
 18 46  1  0  0  0  0
 19 20  2  0  0  0  0
 19 57  1  0  0  0  0
 20 21  1  0  0  0  0
 20 47  1  0  0  0  0
 21 22  2  0  0  0  0
 21 48  1  0  0  0  0
 22 27  1  0  0  0  0
 22 23  1  0  0  0  0
 23 24  1  0  0  0  0
 23 57  2  0  0  0  0
 24 25  1  0  0  0  0
 24 49  1  0  0  0  0
 25 26  1  0  0  0  0
 25 50  1  0  0  0  0
 25 51  1  0  0  0  0
 26 27  1  0  0  0  0
 26 52  1  0  0  0  0
 26 53  1  0  0  0  0
 27 54  1  0  0  0  0
 27 55  1  0  0  0  0
 57 58  1  0  0  0  0
M  CHG  2  56  -1  57   1
M  END
$$$$
ZINC01551611
  -OEChem-08230709463D

 61 63  0     1  0  0  0  0  0999 V2000
    9.5387    7.2939   -8.8245 C   0  0  0  0  0  0  0  0  0  0  0  0
    8.9288    5.9184   -8.7397 C   0  0  0  0  0  0  0  0  0  0  0  0
    8.0702    5.5393   -9.6649 N   0  0  0  0  0  0  0  0  0  0  0  0
    7.5142    4.3392   -9.6228 C   0  0  0  0  0  0  0  0  0  0  0  0
    7.8460    3.4783   -8.5886 C   0  0  0  0  0  0  0  0  0  0  0  0
    8.7483    3.9148   -7.6314 C   0  0  0  0  0  0  0  0  0  0  0  0
    9.2680    5.1268   -7.7420 N   0  0  0  0  0  0  0  0  0  0  0  0
    7.2358    2.1030   -8.5035 C   0  0  1  0  0  0  0  0  0  0  0  0
    6.5541    1.9555   -9.3411 H   0  0  0  0  0  0  0  0  0  0  0  0
    8.3439    1.0493   -8.5560 C   0  0  0  0  0  0  0  0  0  0  0  0
    9.0029    1.0805   -9.9108 C   0  0  0  0  0  0  0  0  0  0  0  0
    8.5570    1.7873  -10.7835 O   0  0  0  0  0  0  0  0  0  0  0  0
    6.4651    1.9675   -7.1887 C   0  0  0  0  0  0  0  0  0  0  0  0
    5.2683    2.9207   -7.1986 C   0  0  0  0  0  0  0  0  0  0  0  0
    4.4222    2.6900   -5.9449 C   0  0  0  0  0  0  0  0  0  0  0  0
    3.2255    3.6431   -5.9547 C   0  0  0  0  0  0  0  0  0  0  0  0
    2.3793    3.4124   -4.7010 C   0  0  0  0  0  0  0  0  0  0  0  0
    1.1826    4.3656   -4.7109 C   0  0  0  0  0  0  0  0  0  0  0  0
    0.3492    4.1383   -3.4760 C   0  0  0  0  0  0  0  0  0  0  0  0
    0.0695    5.2025   -2.6420 C   0  0  0  0  0  0  0  0  0  0  0  0
   -0.7133    4.9899   -1.5124 C   0  0  0  0  0  0  0  0  0  0  0  0
   -1.1773    3.7129   -1.2773 C   0  0  0  0  0  0  0  0  0  0  0  0
   -0.8386    2.6804   -2.1374 C   0  0  0  0  0  0  0  0  0  0  0  0
   -1.2662    1.3847   -1.8698 N   0  0  0  0  0  0  0  0  0  0  0  0
   -0.6986    0.6983   -0.6984 C   0  0  0  0  0  0  0  0  0  0  0  0
   -1.4551    1.0827    0.5513 C   0  0  0  0  0  0  0  0  0  0  0  0
   -1.3278    2.5566    0.9116 C   0  0  0  0  0  0  0  0  0  0  0  0
   -2.0787    3.4299   -0.0895 C   0  0  0  0  0  0  0  0  0  0  0  0
    4.4907    2.6811   -8.3366 F   0  0  0  0  0  0  0  0  0  0  0  0
    5.7253    4.2428   -7.2159 F   0  0  0  0  0  0  0  0  0  0  0  0
    8.9129    8.0029   -8.2824 H   0  0  0  0  0  0  0  0  0  0  0  0
   10.5352    7.2773   -8.3832 H   0  0  0  0  0  0  0  0  0  0  0  0
    9.6091    7.5963   -9.8694 H   0  0  0  0  0  0  0  0  0  0  0  0
    6.8110    4.0348  -10.3839 H   0  0  0  0  0  0  0  0  0  0  0  0
    9.0270    3.2728   -6.8088 H   0  0  0  0  0  0  0  0  0  0  0  0
    9.0854    1.2631   -7.7862 H   0  0  0  0  0  0  0  0  0  0  0  0
    7.9150    0.0622   -8.3832 H   0  0  0  0  0  0  0  0  0  0  0  0
    7.1216    2.2172   -6.3553 H   0  0  0  0  0  0  0  0  0  0  0  0
    6.1120    0.9422   -7.0785 H   0  0  0  0  0  0  0  0  0  0  0  0
    5.0281    2.8766   -5.0582 H   0  0  0  0  0  0  0  0  0  0  0  0
    4.0661    1.6598   -5.9314 H   0  0  0  0  0  0  0  0  0  0  0  0
    2.6196    3.4565   -6.8414 H   0  0  0  0  0  0  0  0  0  0  0  0
    3.5815    4.6733   -5.9682 H   0  0  0  0  0  0  0  0  0  0  0  0
    2.9852    3.5991   -3.8144 H   0  0  0  0  0  0  0  0  0  0  0  0
    2.0233    2.3823   -4.6875 H   0  0  0  0  0  0  0  0  0  0  0  0
    0.5767    4.1789   -5.5975 H   0  0  0  0  0  0  0  0  0  0  0  0
    1.5387    5.3957   -4.7244 H   0  0  0  0  0  0  0  0  0  0  0  0
    0.4533    6.1873   -2.8641 H   0  0  0  0  0  0  0  0  0  0  0  0
   -0.9504    5.8006   -0.8393 H   0  0  0  0  0  0  0  0  0  0  0  0
   -1.9186    0.9465   -2.4383 H   0  0  0  0  0  0  0  0  0  0  0  0
   -0.7674   -0.3798   -0.8440 H   0  0  0  0  0  0  0  0  0  0  0  0
    0.3483    0.9808   -0.5873 H   0  0  0  0  0  0  0  0  0  0  0  0
   -2.5092    0.8453    0.4076 H   0  0  0  0  0  0  0  0  0  0  0  0
   -1.0773    0.4893    1.3839 H   0  0  0  0  0  0  0  0  0  0  0  0
   -0.2747    2.8377    0.9119 H   0  0  0  0  0  0  0  0  0  0  0  0
   -1.7411    2.7179    1.9072 H   0  0  0  0  0  0  0  0  0  0  0  0
   -2.3604    4.3694    0.3861 H   0  0  0  0  0  0  0  0  0  0  0  0
   -2.9748    2.9098   -0.4279 H   0  0  0  0  0  0  0  0  0  0  0  0
   10.0854    0.3231  -10.1482 O   0  5  0  0  0  0  0  0  0  0  0  0
   -0.0827    2.8679   -3.2607 N   0  3  0  0  0  0  0  0  0  0  0  0
    0.1442    2.0980   -3.9010 H   0  0  0  0  0  0  0  0  0  0  0  0
  1  2  1  0  0  0  0
  1 31  1  0  0  0  0
  1 32  1  0  0  0  0
  1 33  1  0  0  0  0
  2  7  2  0  0  0  0
  2  3  1  0  0  0  0
  3  4  2  0  0  0  0
  4  5  1  0  0  0  0
  4 34  1  0  0  0  0
  5  6  2  0  0  0  0
  5  8  1  0  0  0  0
  6  7  1  0  0  0  0
  6 35  1  0  0  0  0
  8  9  1  0  0  0  0
  8 10  1  0  0  0  0
  8 13  1  0  0  0  0
 10 11  1  0  0  0  0
 10 36  1  0  0  0  0
 10 37  1  0  0  0  0
 11 12  2  0  0  0  0
 11 59  1  0  0  0  0
 13 14  1  0  0  0  0
 13 38  1  0  0  0  0
 13 39  1  0  0  0  0
 14 15  1  0  0  0  0
 14 29  1  0  0  0  0
 14 30  1  0  0  0  0
 15 16  1  0  0  0  0
 15 40  1  0  0  0  0
 15 41  1  0  0  0  0
 16 17  1  0  0  0  0
 16 42  1  0  0  0  0
 16 43  1  0  0  0  0
 17 18  1  0  0  0  0
 17 44  1  0  0  0  0
 17 45  1  0  0  0  0
 18 19  1  0  0  0  0
 18 46  1  0  0  0  0
 18 47  1  0  0  0  0
 19 20  2  0  0  0  0
 19 60  1  0  0  0  0
 20 21  1  0  0  0  0
 20 48  1  0  0  0  0
 21 22  2  0  0  0  0
 21 49  1  0  0  0  0
 22 28  1  0  0  0  0
 22 23  1  0  0  0  0
 23 24  1  0  0  0  0
 23 60  2  0  0  0  0
 24 25  1  0  0  0  0
 24 50  1  0  0  0  0
 25 26  1  0  0  0  0
 25 51  1  0  0  0  0
 25 52  1  0  0  0  0
 26 27  1  0  0  0  0
 26 53  1  0  0  0  0
 26 54  1  0  0  0  0
 27 28  1  0  0  0  0
 27 55  1  0  0  0  0
 27 56  1  0  0  0  0
 28 57  1  0  0  0  0
 28 58  1  0  0  0  0
 60 61  1  0  0  0  0
M  CHG  2  59  -1  60   1
M  END
$$$$
ZINC01551819
  -OEChem-08230709463D

 55 56  0     0  0  0  0  0  0999 V2000
    0.4692    1.6776    0.0867 C   0  0  0  0  0  0  0  0  0  0  0  0
    0.0371    2.4543    1.3321 C   0  0  0  0  0  0  0  0  0  0  0  0
    0.2865    3.9479    1.1136 C   0  0  0  0  0  0  0  0  0  0  0  0
   -1.4525    2.2182    1.5891 C   0  0  0  0  0  0  0  0  0  0  0  0
    0.8332    1.9807    2.5208 C   0  0  0  0  0  0  0  0  0  0  0  0
    1.7795    0.9869    2.3662 C   0  0  0  0  0  0  0  0  0  0  0  0
    2.5134    0.5510    3.4618 C   0  0  0  0  0  0  0  0  0  0  0  0
    2.2947    1.1151    4.7120 C   0  0  0  0  0  0  0  0  0  0  0  0
    1.3481    2.1088    4.8646 C   0  0  0  0  0  0  0  0  0  0  0  0
    0.6193    2.5473    3.7688 C   0  0  0  0  0  0  0  0  0  0  0  0
   -0.3088    3.5298    3.9190 O   0  0  0  0  0  0  0  0  0  0  0  0
    1.1107    2.7211    6.2210 C   0  0  0  0  0  0  0  0  0  0  0  0
    2.0410    2.0680    7.2453 C   0  0  0  0  0  0  0  0  0  0  0  0
    1.3944    4.2232    6.1592 C   0  0  0  0  0  0  0  0  0  0  0  0
   -0.3444    2.4935    6.6357 C   0  0  0  0  0  0  0  0  0  0  0  0
    3.4721   -0.4563    3.3062 N   0  0  0  0  0  0  0  0  0  0  0  0
    4.3243   -0.4408    2.2090 C   0  0  0  0  0  0  0  0  0  0  0  0
    4.3347    0.6491    1.3482 C   0  0  0  0  0  0  0  0  0  0  0  0
    5.1861    0.6648    0.2622 C   0  0  0  0  0  0  0  0  0  0  0  0
    6.0286   -0.4080    0.0135 C   0  0  0  0  0  0  0  0  0  0  0  0
    6.0302   -1.5010    0.8510 C   0  0  0  0  0  0  0  0  0  0  0  0
    5.1772   -1.5312    1.9605 C   0  0  0  0  0  0  0  0  0  0  0  0
    5.1732   -2.6923    2.8583 C   0  0  0  0  0  0  0  0  0  0  0  0
    6.3415   -3.2021    3.3094 C   0  0  0  0  0  0  0  0  0  0  0  0
    7.5491   -2.4882    3.1118 C   0  0  0  0  0  0  0  0  0  0  0  0
    7.5219   -1.3627    2.6507 O   0  0  0  0  0  0  0  0  0  0  0  0
    0.2915    0.6135    0.2424 H   0  0  0  0  0  0  0  0  0  0  0  0
    1.5304    1.8458   -0.0964 H   0  0  0  0  0  0  0  0  0  0  0  0
   -0.1066    2.0201   -0.7731 H   0  0  0  0  0  0  0  0  0  0  0  0
   -0.2893    4.2905    0.2538 H   0  0  0  0  0  0  0  0  0  0  0  0
   -0.0213    4.5013    2.0008 H   0  0  0  0  0  0  0  0  0  0  0  0
    1.3477    4.1162    0.9305 H   0  0  0  0  0  0  0  0  0  0  0  0
   -1.6302    1.1541    1.7448 H   0  0  0  0  0  0  0  0  0  0  0  0
   -1.7603    2.7715    2.4763 H   0  0  0  0  0  0  0  0  0  0  0  0
   -2.0284    2.5607    0.7293 H   0  0  0  0  0  0  0  0  0  0  0  0
    1.9490    0.5491    1.3936 H   0  0  0  0  0  0  0  0  0  0  0  0
    2.8652    0.7770    5.5644 H   0  0  0  0  0  0  0  0  0  0  0  0
   -1.1942    3.2051    4.1330 H   0  0  0  0  0  0  0  0  0  0  0  0
    3.0776    2.2301    6.9498 H   0  0  0  0  0  0  0  0  0  0  0  0
    1.8693    2.5109    8.2263 H   0  0  0  0  0  0  0  0  0  0  0  0
    1.8388    0.9978    7.2893 H   0  0  0  0  0  0  0  0  0  0  0  0
    0.7317    4.6885    5.4296 H   0  0  0  0  0  0  0  0  0  0  0  0
    1.2227    4.6661    7.1403 H   0  0  0  0  0  0  0  0  0  0  0  0
    2.4310    4.3853    5.8638 H   0  0  0  0  0  0  0  0  0  0  0  0
   -0.5465    1.4233    6.6797 H   0  0  0  0  0  0  0  0  0  0  0  0
   -0.5161    2.9364    7.6168 H   0  0  0  0  0  0  0  0  0  0  0  0
   -1.0071    2.9587    5.9060 H   0  0  0  0  0  0  0  0  0  0  0  0
    3.5418   -1.1654    3.9644 H   0  0  0  0  0  0  0  0  0  0  0  0
    3.6788    1.4873    1.5314 H   0  0  0  0  0  0  0  0  0  0  0  0
    5.1931    1.5170   -0.4013 H   0  0  0  0  0  0  0  0  0  0  0  0
    6.6871   -0.3865   -0.8423 H   0  0  0  0  0  0  0  0  0  0  0  0
    6.6888   -2.3336    0.6524 H   0  0  0  0  0  0  0  0  0  0  0  0
    4.2372   -3.1394    3.1587 H   0  0  0  0  0  0  0  0  0  0  0  0
    6.3540   -4.1536    3.8202 H   0  0  0  0  0  0  0  0  0  0  0  0
    8.7296   -3.0566    3.4352 O   0  5  0  0  0  0  0  0  0  0  0  0
  1  2  1  0  0  0  0
  1 27  1  0  0  0  0
  1 28  1  0  0  0  0
  1 29  1  0  0  0  0
  2  3  1  0  0  0  0
  2  4  1  0  0  0  0
  2  5  1  0  0  0  0
  3 30  1  0  0  0  0
  3 31  1  0  0  0  0
  3 32  1  0  0  0  0
  4 33  1  0  0  0  0
  4 34  1  0  0  0  0
  4 35  1  0  0  0  0
  5 10  2  0  0  0  0
  5  6  1  0  0  0  0
  6  7  2  0  0  0  0
  6 36  1  0  0  0  0
  7  8  1  0  0  0  0
  7 16  1  0  0  0  0
  8  9  2  0  0  0  0
  8 37  1  0  0  0  0
  9 10  1  0  0  0  0
  9 12  1  0  0  0  0
 10 11  1  0  0  0  0
 11 38  1  0  0  0  0
 12 13  1  0  0  0  0
 12 14  1  0  0  0  0
 12 15  1  0  0  0  0
 13 39  1  0  0  0  0
 13 40  1  0  0  0  0
 13 41  1  0  0  0  0
 14 42  1  0  0  0  0
 14 43  1  0  0  0  0
 14 44  1  0  0  0  0
 15 45  1  0  0  0  0
 15 46  1  0  0  0  0
 15 47  1  0  0  0  0
 16 17  1  0  0  0  0
 16 48  1  0  0  0  0
 17 22  2  0  0  0  0
 17 18  1  0  0  0  0
 18 19  2  0  0  0  0
 18 49  1  0  0  0  0
 19 20  1  0  0  0  0
 19 50  1  0  0  0  0
 20 21  2  0  0  0  0
 20 51  1  0  0  0  0
 21 22  1  0  0  0  0
 21 52  1  0  0  0  0
 22 23  1  0  0  0  0
 23 24  2  0  0  0  0
 23 53  1  0  0  0  0
 24 25  1  0  0  0  0
 24 54  1  0  0  0  0
 25 26  2  0  0  0  0
 25 55  1  0  0  0  0
M  CHG  1  55  -1
M  END
$$$$
ZINC01552706
  -OEChem-08230709463D

 57 58  0     0  0  0  0  0  0999 V2000
   -8.4080   -6.1222   -4.6434 C   0  0  0  0  0  0  0  0  0  0  0  0
   -8.9005   -6.5167   -3.2496 C   0  0  0  0  0  0  0  0  0  0  0  0
   -8.4457   -7.9427   -2.9326 C   0  0  0  0  0  0  0  0  0  0  0  0
  -10.4284   -6.4481   -3.2103 C   0  0  0  0  0  0  0  0  0  0  0  0
   -8.3286   -5.5681   -2.2276 C   0  0  0  0  0  0  0  0  0  0  0  0
   -7.4035   -4.6212   -2.6099 C   0  0  0  0  0  0  0  0  0  0  0  0
   -6.8734   -3.7423   -1.6609 C   0  0  0  0  0  0  0  0  0  0  0  0
   -7.2811   -3.8322   -0.3269 C   0  0  0  0  0  0  0  0  0  0  0  0
   -8.2111   -4.7787    0.0447 C   0  0  0  0  0  0  0  0  0  0  0  0
   -8.7346   -5.6501   -0.9018 C   0  0  0  0  0  0  0  0  0  0  0  0
   -9.6470   -6.5854   -0.5296 O   0  0  0  0  0  0  0  0  0  0  0  0
   -9.1436   -7.8677   -0.1498 C   0  0  0  0  0  0  0  0  0  0  0  0
   -8.6565   -4.8723    1.4813 C   0  0  0  0  0  0  0  0  0  0  0  0
   -7.6249   -4.1884    2.3807 C   0  0  0  0  0  0  0  0  0  0  0  0
  -10.0114   -4.1798    1.6413 C   0  0  0  0  0  0  0  0  0  0  0  0
   -8.7855   -6.3436    1.8804 C   0  0  0  0  0  0  0  0  0  0  0  0
   -5.9113   -2.7568   -2.0531 C   0  0  0  0  0  0  0  0  0  0  0  0
   -5.1226   -1.9488   -2.3746 C   0  0  0  0  0  0  0  0  0  0  0  0
   -4.1605   -0.9633   -2.7668 C   0  0  0  0  0  0  0  0  0  0  0  0
   -3.6298   -0.0840   -1.8191 C   0  0  0  0  0  0  0  0  0  0  0  0
   -2.7033    0.8622   -2.2041 C   0  0  0  0  0  0  0  0  0  0  0  0
   -2.2987    0.9420   -3.5250 C   0  0  0  0  0  0  0  0  0  0  0  0
   -2.8237    0.0781   -4.4700 C   0  0  0  0  0  0  0  0  0  0  0  0
   -3.7474   -0.8765   -4.0989 C   0  0  0  0  0  0  0  0  0  0  0  0
   -1.2858    1.9788   -3.9376 C   0  0  0  0  0  0  0  0  0  0  0  0
    0.1016    1.4047   -3.8091 C   0  0  0  0  0  0  0  0  0  0  0  0
    0.2525    0.2701   -3.4221 O   0  0  0  0  0  0  0  0  0  0  0  0
   -7.3194   -6.1711   -4.6714 H   0  0  0  0  0  0  0  0  0  0  0  0
   -8.8216   -6.8082   -5.3825 H   0  0  0  0  0  0  0  0  0  0  0  0
   -8.7320   -5.1063   -4.8692 H   0  0  0  0  0  0  0  0  0  0  0  0
   -8.7887   -8.2204   -1.9359 H   0  0  0  0  0  0  0  0  0  0  0  0
   -8.8668   -8.6299   -3.6663 H   0  0  0  0  0  0  0  0  0  0  0  0
   -7.3575   -7.9937   -2.9697 H   0  0  0  0  0  0  0  0  0  0  0  0
  -10.7525   -5.4321   -3.4361 H   0  0  0  0  0  0  0  0  0  0  0  0
  -10.8421   -7.1341   -3.9494 H   0  0  0  0  0  0  0  0  0  0  0  0
  -10.7793   -6.7291   -2.2173 H   0  0  0  0  0  0  0  0  0  0  0  0
   -7.0887   -4.5580   -3.6410 H   0  0  0  0  0  0  0  0  0  0  0  0
   -6.8710   -3.1581    0.4106 H   0  0  0  0  0  0  0  0  0  0  0  0
   -9.7323   -8.6471   -0.6337 H   0  0  0  0  0  0  0  0  0  0  0  0
   -8.1018   -7.9550   -0.4582 H   0  0  0  0  0  0  0  0  0  0  0  0
   -9.2127   -7.9792    0.9323 H   0  0  0  0  0  0  0  0  0  0  0  0
   -7.5330   -3.1402    2.0964 H   0  0  0  0  0  0  0  0  0  0  0  0
   -7.9470   -4.2561    3.4198 H   0  0  0  0  0  0  0  0  0  0  0  0
   -6.6596   -4.6818    2.2667 H   0  0  0  0  0  0  0  0  0  0  0  0
  -10.7464   -4.6669    1.0006 H   0  0  0  0  0  0  0  0  0  0  0  0
  -10.3336   -4.2475    2.6804 H   0  0  0  0  0  0  0  0  0  0  0  0
   -9.9195   -3.1315    1.3570 H   0  0  0  0  0  0  0  0  0  0  0  0
   -7.9078   -6.8914    1.5375 H   0  0  0  0  0  0  0  0  0  0  0  0
   -8.8609   -6.4206    2.9651 H   0  0  0  0  0  0  0  0  0  0  0  0
   -9.6797   -6.7671    1.4231 H   0  0  0  0  0  0  0  0  0  0  0  0
   -3.9442   -0.1456   -0.7877 H   0  0  0  0  0  0  0  0  0  0  0  0
   -2.2923    1.5425   -1.4728 H   0  0  0  0  0  0  0  0  0  0  0  0
   -2.5063    0.1489   -5.4999 H   0  0  0  0  0  0  0  0  0  0  0  0
   -4.1530   -1.5529   -4.8367 H   0  0  0  0  0  0  0  0  0  0  0  0
   -1.3783    2.8534   -3.2938 H   0  0  0  0  0  0  0  0  0  0  0  0
   -1.4643    2.2693   -4.9729 H   0  0  0  0  0  0  0  0  0  0  0  0
    1.1695    2.1521   -4.1297 O   0  5  0  0  0  0  0  0  0  0  0  0
  1  2  1  0  0  0  0
  1 28  1  0  0  0  0
  1 29  1  0  0  0  0
  1 30  1  0  0  0  0
  2  3  1  0  0  0  0
  2  4  1  0  0  0  0
  2  5  1  0  0  0  0
  3 31  1  0  0  0  0
  3 32  1  0  0  0  0
  3 33  1  0  0  0  0
  4 34  1  0  0  0  0
  4 35  1  0  0  0  0
  4 36  1  0  0  0  0
  5 10  2  0  0  0  0
  5  6  1  0  0  0  0
  6  7  2  0  0  0  0
  6 37  1  0  0  0  0
  7  8  1  0  0  0  0
  7 17  1  0  0  0  0
  8  9  2  0  0  0  0
  8 38  1  0  0  0  0
  9 10  1  0  0  0  0
  9 13  1  0  0  0  0
 10 11  1  0  0  0  0
 11 12  1  0  0  0  0
 12 39  1  0  0  0  0
 12 40  1  0  0  0  0
 12 41  1  0  0  0  0
 13 14  1  0  0  0  0
 13 15  1  0  0  0  0
 13 16  1  0  0  0  0
 14 42  1  0  0  0  0
 14 43  1  0  0  0  0
 14 44  1  0  0  0  0
 15 45  1  0  0  0  0
 15 46  1  0  0  0  0
 15 47  1  0  0  0  0
 16 48  1  0  0  0  0
 16 49  1  0  0  0  0
 16 50  1  0  0  0  0
 17 18  3  0  0  0  0
 18 19  1  0  0  0  0
 19 24  2  0  0  0  0
 19 20  1  0  0  0  0
 20 21  2  0  0  0  0
 20 51  1  0  0  0  0
 21 22  1  0  0  0  0
 21 52  1  0  0  0  0
 22 23  2  0  0  0  0
 22 25  1  0  0  0  0
 23 24  1  0  0  0  0
 23 53  1  0  0  0  0
 24 54  1  0  0  0  0
 25 26  1  0  0  0  0
 25 55  1  0  0  0  0
 25 56  1  0  0  0  0
 26 27  2  0  0  0  0
 26 57  1  0  0  0  0
M  CHG  1  57  -1
M  END
$$$$
ZINC01552707
  -OEChem-08230709463D

 57 58  0     0  0  0  0  0  0999 V2000
    8.5373    2.3208    0.7720 C   0  0  0  0  0  0  0  0  0  0  0  0
    8.7158    0.8279    0.4891 C   0  0  0  0  0  0  0  0  0  0  0  0
    9.0513    0.0985    1.7915 C   0  0  0  0  0  0  0  0  0  0  0  0
    9.8548    0.6314   -0.5134 C   0  0  0  0  0  0  0  0  0  0  0  0
    7.4394    0.2693   -0.0851 C   0  0  0  0  0  0  0  0  0  0  0  0
    6.3549    1.0958   -0.2838 C   0  0  0  0  0  0  0  0  0  0  0  0
    5.1715    0.5765   -0.8165 C   0  0  0  0  0  0  0  0  0  0  0  0
    5.0926   -0.7811   -1.1401 C   0  0  0  0  0  0  0  0  0  0  0  0
    6.1841   -1.5987   -0.9427 C   0  0  0  0  0  0  0  0  0  0  0  0
    7.3577   -1.0781   -0.4127 C   0  0  0  0  0  0  0  0  0  0  0  0
    8.4294   -1.8892   -0.2146 O   0  0  0  0  0  0  0  0  0  0  0  0
    9.3315   -2.0518   -1.3109 C   0  0  0  0  0  0  0  0  0  0  0  0
    6.1022   -3.0613   -1.2965 C   0  0  0  0  0  0  0  0  0  0  0  0
    4.6641   -3.4129   -1.6828 C   0  0  0  0  0  0  0  0  0  0  0  0
    7.0329   -3.3537   -2.4752 C   0  0  0  0  0  0  0  0  0  0  0  0
    6.5266   -3.9022   -0.0908 C   0  0  0  0  0  0  0  0  0  0  0  0
    4.0416    1.4313   -1.0244 C   0  0  0  0  0  0  0  0  0  0  0  0
    3.1152    2.1321   -1.1949 C   0  0  0  0  0  0  0  0  0  0  0  0
    1.9853    2.9869   -1.4029 C   0  0  0  0  0  0  0  0  0  0  0  0
    0.8016    2.4686   -1.9354 C   0  0  0  0  0  0  0  0  0  0  0  0
   -0.2834    3.2965   -2.1330 C   0  0  0  0  0  0  0  0  0  0  0  0
   -0.2033    4.6385   -1.8056 C   0  0  0  0  0  0  0  0  0  0  0  0
    0.9665    5.1607   -1.2771 C   0  0  0  0  0  0  0  0  0  0  0  0
    2.0611    4.3424   -1.0740 C   0  0  0  0  0  0  0  0  0  0  0  0
    1.0369    6.4721   -0.9603 F   0  0  0  0  0  0  0  0  0  0  0  0
   -1.3916    5.5377   -2.0306 C   0  0  0  0  0  0  0  0  0  0  0  0
   -2.1209    5.7418   -0.7277 C   0  0  0  0  0  0  0  0  0  0  0  0
   -1.7172    5.2115    0.2801 O   0  0  0  0  0  0  0  0  0  0  0  0
    7.7258    2.4608    1.4862 H   0  0  0  0  0  0  0  0  0  0  0  0
    9.4605    2.7249    1.1873 H   0  0  0  0  0  0  0  0  0  0  0  0
    8.2983    2.8405   -0.1559 H   0  0  0  0  0  0  0  0  0  0  0  0
    9.2672   -0.9481    1.5766 H   0  0  0  0  0  0  0  0  0  0  0  0
    9.9230    0.5620    2.2534 H   0  0  0  0  0  0  0  0  0  0  0  0
    8.2025    0.1619    2.4725 H   0  0  0  0  0  0  0  0  0  0  0  0
    9.4642    0.7126   -1.5277 H   0  0  0  0  0  0  0  0  0  0  0  0
   10.6148    1.3965   -0.3544 H   0  0  0  0  0  0  0  0  0  0  0  0
   10.2971   -0.3548   -0.3722 H   0  0  0  0  0  0  0  0  0  0  0  0
    6.4193    2.1433   -0.0288 H   0  0  0  0  0  0  0  0  0  0  0  0
    4.1790   -1.1877   -1.5481 H   0  0  0  0  0  0  0  0  0  0  0  0
    8.7780   -2.3773   -2.1917 H   0  0  0  0  0  0  0  0  0  0  0  0
    9.8227   -1.1017   -1.5211 H   0  0  0  0  0  0  0  0  0  0  0  0
   10.0818   -2.8002   -1.0561 H   0  0  0  0  0  0  0  0  0  0  0  0
    4.3618   -2.8138   -2.5417 H   0  0  0  0  0  0  0  0  0  0  0  0
    4.6050   -4.4707   -1.9387 H   0  0  0  0  0  0  0  0  0  0  0  0
    4.0011   -3.2045   -0.8431 H   0  0  0  0  0  0  0  0  0  0  0  0
    8.0430   -3.5303   -2.1054 H   0  0  0  0  0  0  0  0  0  0  0  0
    6.6804   -4.2383   -3.0057 H   0  0  0  0  0  0  0  0  0  0  0  0
    7.0384   -2.5010   -3.1541 H   0  0  0  0  0  0  0  0  0  0  0  0
    5.8230   -3.7458    0.7269 H   0  0  0  0  0  0  0  0  0  0  0  0
    6.5335   -4.9565   -0.3675 H   0  0  0  0  0  0  0  0  0  0  0  0
    7.5254   -3.6034    0.2271 H   0  0  0  0  0  0  0  0  0  0  0  0
    0.7366    1.4213   -2.1914 H   0  0  0  0  0  0  0  0  0  0  0  0
   -1.1981    2.8964   -2.5448 H   0  0  0  0  0  0  0  0  0  0  0  0
    2.9725    4.7495   -0.6618 H   0  0  0  0  0  0  0  0  0  0  0  0
   -1.0515    6.5007   -2.4113 H   0  0  0  0  0  0  0  0  0  0  0  0
   -2.0636    5.0774   -2.7549 H   0  0  0  0  0  0  0  0  0  0  0  0
   -3.2190    6.5127   -0.6868 O   0  5  0  0  0  0  0  0  0  0  0  0
  1  2  1  0  0  0  0
  1 29  1  0  0  0  0
  1 30  1  0  0  0  0
  1 31  1  0  0  0  0
  2  3  1  0  0  0  0
  2  4  1  0  0  0  0
  2  5  1  0  0  0  0
  3 32  1  0  0  0  0
  3 33  1  0  0  0  0
  3 34  1  0  0  0  0
  4 35  1  0  0  0  0
  4 36  1  0  0  0  0
  4 37  1  0  0  0  0
  5 10  2  0  0  0  0
  5  6  1  0  0  0  0
  6  7  2  0  0  0  0
  6 38  1  0  0  0  0
  7  8  1  0  0  0  0
  7 17  1  0  0  0  0
  8  9  2  0  0  0  0
  8 39  1  0  0  0  0
  9 10  1  0  0  0  0
  9 13  1  0  0  0  0
 10 11  1  0  0  0  0
 11 12  1  0  0  0  0
 12 40  1  0  0  0  0
 12 41  1  0  0  0  0
 12 42  1  0  0  0  0
 13 14  1  0  0  0  0
 13 15  1  0  0  0  0
 13 16  1  0  0  0  0
 14 43  1  0  0  0  0
 14 44  1  0  0  0  0
 14 45  1  0  0  0  0
 15 46  1  0  0  0  0
 15 47  1  0  0  0  0
 15 48  1  0  0  0  0
 16 49  1  0  0  0  0
 16 50  1  0  0  0  0
 16 51  1  0  0  0  0
 17 18  3  0  0  0  0
 18 19  1  0  0  0  0
 19 24  2  0  0  0  0
 19 20  1  0  0  0  0
 20 21  2  0  0  0  0
 20 52  1  0  0  0  0
 21 22  1  0  0  0  0
 21 53  1  0  0  0  0
 22 23  2  0  0  0  0
 22 26  1  0  0  0  0
 23 24  1  0  0  0  0
 23 25  1  0  0  0  0
 24 54  1  0  0  0  0
 26 27  1  0  0  0  0
 26 55  1  0  0  0  0
 26 56  1  0  0  0  0
 27 28  2  0  0  0  0
 27 57  1  0  0  0  0
M  CHG  1  57  -1
M  END
$$$$
ZINC01553308
  -OEChem-08230709463D

 58 60  0     1  0  0  0  0  0999 V2000
    5.3690    3.0862   -4.8567 C   0  0  0  0  0  0  0  0  0  0  0  0
    4.6886    3.3592   -3.5400 C   0  0  0  0  0  0  0  0  0  0  0  0
    5.1852    2.8305   -2.4396 N   0  0  0  0  0  0  0  0  0  0  0  0
    4.6145    3.0478   -1.2656 C   0  0  0  0  0  0  0  0  0  0  0  0
    3.4809    3.8428   -1.2040 C   0  0  0  0  0  0  0  0  0  0  0  0
    2.9850    4.3764   -2.3831 C   0  0  0  0  0  0  0  0  0  0  0  0
    3.6126    4.1199   -3.5196 N   0  0  0  0  0  0  0  0  0  0  0  0
    2.8002    4.1155    0.1126 C   0  0  2  0  0  0  0  0  0  0  0  0
    3.3380    3.6058    0.9121 H   0  0  0  0  0  0  0  0  0  0  0  0
    1.3602    3.6015    0.0583 C   0  0  0  0  0  0  0  0  0  0  0  0
    1.3673    2.0776   -0.0775 C   0  0  0  0  0  0  0  0  0  0  0  0
   -0.0680    1.5524   -0.0056 C   0  0  0  0  0  0  0  0  0  0  0  0
   -0.0608    0.0285   -0.1414 C   0  0  0  0  0  0  0  0  0  0  0  0
   -1.4961   -0.4967   -0.0694 C   0  0  0  0  0  0  0  0  0  0  0  0
   -1.4889   -2.0206   -0.2052 C   0  0  0  0  0  0  0  0  0  0  0  0
   -2.9026   -2.5379   -0.1344 C   0  0  0  0  0  0  0  0  0  0  0  0
   -3.3931   -3.3246   -1.1575 C   0  0  0  0  0  0  0  0  0  0  0  0
   -4.6945   -3.8002   -1.0826 C   0  0  0  0  0  0  0  0  0  0  0  0
   -5.4647   -3.4575    0.0172 C   0  0  0  0  0  0  0  0  0  0  0  0
   -4.9087   -2.6600    1.0077 C   0  0  0  0  0  0  0  0  0  0  0  0
   -5.6519   -2.3018    2.1308 N   0  0  0  0  0  0  0  0  0  0  0  0
   -7.1056   -2.5113    2.1194 C   0  0  0  0  0  0  0  0  0  0  0  0
   -7.3754   -3.9105    1.5506 C   0  0  0  0  0  0  0  0  0  0  0  0
   -6.8811   -3.9576    0.1044 C   0  0  0  0  0  0  0  0  0  0  0  0
    2.7944    5.6217    0.3815 C   0  0  0  0  0  0  0  0  0  0  0  0
    2.2759    5.8816    1.7724 C   0  0  0  0  0  0  0  0  0  0  0  0
    1.8796    4.9637    2.4508 O   0  0  0  0  0  0  0  0  0  0  0  0
    4.9428    2.1897   -5.3069 H   0  0  0  0  0  0  0  0  0  0  0  0
    5.2204    3.9342   -5.5251 H   0  0  0  0  0  0  0  0  0  0  0  0
    6.4359    2.9372   -4.6903 H   0  0  0  0  0  0  0  0  0  0  0  0
    5.0263    2.6113   -0.3677 H   0  0  0  0  0  0  0  0  0  0  0  0
    2.1011    4.9968   -2.3740 H   0  0  0  0  0  0  0  0  0  0  0  0
    0.8499    4.0403   -0.7991 H   0  0  0  0  0  0  0  0  0  0  0  0
    0.8394    3.8823    0.9738 H   0  0  0  0  0  0  0  0  0  0  0  0
    1.9541    1.6434    0.7320 H   0  0  0  0  0  0  0  0  0  0  0  0
    1.8081    1.8002   -1.0350 H   0  0  0  0  0  0  0  0  0  0  0  0
   -0.6547    1.9866   -0.8151 H   0  0  0  0  0  0  0  0  0  0  0  0
   -0.5088    1.8298    0.9519 H   0  0  0  0  0  0  0  0  0  0  0  0
    0.3800   -0.2489   -1.0989 H   0  0  0  0  0  0  0  0  0  0  0  0
    0.5259   -0.4057    0.6681 H   0  0  0  0  0  0  0  0  0  0  0  0
   -1.9369   -0.2193    0.8881 H   0  0  0  0  0  0  0  0  0  0  0  0
   -2.0828   -0.0625   -0.8789 H   0  0  0  0  0  0  0  0  0  0  0  0
   -1.0481   -2.2980   -1.1628 H   0  0  0  0  0  0  0  0  0  0  0  0
   -0.9022   -2.4548    0.6043 H   0  0  0  0  0  0  0  0  0  0  0  0
   -2.7697   -3.5703   -2.0045 H   0  0  0  0  0  0  0  0  0  0  0  0
   -5.1003   -4.4211   -1.8675 H   0  0  0  0  0  0  0  0  0  0  0  0
   -5.2157   -1.9194    2.9082 H   0  0  0  0  0  0  0  0  0  0  0  0
   -7.4958   -2.4445    3.1350 H   0  0  0  0  0  0  0  0  0  0  0  0
   -7.5818   -1.7587    1.4911 H   0  0  0  0  0  0  0  0  0  0  0  0
   -6.8433   -4.6547    2.1431 H   0  0  0  0  0  0  0  0  0  0  0  0
   -8.4453   -4.1168    1.5801 H   0  0  0  0  0  0  0  0  0  0  0  0
   -6.9236   -4.9848   -0.2578 H   0  0  0  0  0  0  0  0  0  0  0  0
   -7.5209   -3.3299   -0.5158 H   0  0  0  0  0  0  0  0  0  0  0  0
    3.8089    6.0104    0.2934 H   0  0  0  0  0  0  0  0  0  0  0  0
    2.1508    6.1179   -0.3449 H   0  0  0  0  0  0  0  0  0  0  0  0
   -3.6273   -2.1832    0.9593 N   0  3  0  0  0  0  0  0  0  0  0  0
   -3.2369   -1.5935    1.7037 H   0  0  0  0  0  0  0  0  0  0  0  0
    2.2542    7.1330    2.2576 O   0  5  0  0  0  0  0  0  0  0  0  0
  1  2  1  0  0  0  0
  1 28  1  0  0  0  0
  1 29  1  0  0  0  0
  1 30  1  0  0  0  0
  2  7  2  0  0  0  0
  2  3  1  0  0  0  0
  3  4  2  0  0  0  0
  4  5  1  0  0  0  0
  4 31  1  0  0  0  0
  5  6  2  0  0  0  0
  5  8  1  0  0  0  0
  6  7  1  0  0  0  0
  6 32  1  0  0  0  0
  8  9  1  0  0  0  0
  8 10  1  0  0  0  0
  8 25  1  0  0  0  0
 10 11  1  0  0  0  0
 10 33  1  0  0  0  0
 10 34  1  0  0  0  0
 11 12  1  0  0  0  0
 11 35  1  0  0  0  0
 11 36  1  0  0  0  0
 12 13  1  0  0  0  0
 12 37  1  0  0  0  0
 12 38  1  0  0  0  0
 13 14  1  0  0  0  0
 13 39  1  0  0  0  0
 13 40  1  0  0  0  0
 14 15  1  0  0  0  0
 14 41  1  0  0  0  0
 14 42  1  0  0  0  0
 15 16  1  0  0  0  0
 15 43  1  0  0  0  0
 15 44  1  0  0  0  0
 16 17  2  0  0  0  0
 16 56  1  0  0  0  0
 17 18  1  0  0  0  0
 17 45  1  0  0  0  0
 18 19  2  0  0  0  0
 18 46  1  0  0  0  0
 19 24  1  0  0  0  0
 19 20  1  0  0  0  0
 20 21  1  0  0  0  0
 20 56  2  0  0  0  0
 21 22  1  0  0  0  0
 21 47  1  0  0  0  0
 22 23  1  0  0  0  0
 22 48  1  0  0  0  0
 22 49  1  0  0  0  0
 23 24  1  0  0  0  0
 23 50  1  0  0  0  0
 23 51  1  0  0  0  0
 24 52  1  0  0  0  0
 24 53  1  0  0  0  0
 25 26  1  0  0  0  0
 25 54  1  0  0  0  0
 25 55  1  0  0  0  0
 26 27  2  0  0  0  0
 26 58  1  0  0  0  0
 56 57  1  0  0  0  0
M  CHG  2  56   1  58  -1
M  END
$$$$
ZINC01554093
  -OEChem-08230709463D

 53 56  0     0  0  0  0  0  0999 V2000
   -7.2569   -0.3842    0.0387 C   0  0  0  0  0  0  0  0  0  0  0  0
   -6.0447   -1.1408    0.0284 O   0  0  0  0  0  0  0  0  0  0  0  0
   -4.8804   -0.4403    0.0253 C   0  0  0  0  0  0  0  0  0  0  0  0
   -3.6666   -1.1140    0.0153 C   0  0  0  0  0  0  0  0  0  0  0  0
   -2.4832   -0.4058    0.0126 C   0  0  0  0  0  0  0  0  0  0  0  0
   -2.5067    0.9878    0.0198 C   0  0  0  0  0  0  0  0  0  0  0  0
   -3.7268    1.6614    0.0351 C   0  0  0  0  0  0  0  0  0  0  0  0
   -4.9069    0.9477    0.0325 C   0  0  0  0  0  0  0  0  0  0  0  0
   -1.2354    1.7526    0.0174 C   0  0  0  0  0  0  0  0  0  0  0  0
   -0.0126    1.0758    0.0080 C   0  0  0  0  0  0  0  0  0  0  0  0
    1.1725    1.7745    0.0004 C   0  0  0  0  0  0  0  0  0  0  0  0
    1.1629    3.1668    0.0075 C   0  0  0  0  0  0  0  0  0  0  0  0
   -0.0639    3.8498    0.0224 C   0  0  0  0  0  0  0  0  0  0  0  0
   -1.2603    3.1423    0.0296 C   0  0  0  0  0  0  0  0  0  0  0  0
    0.2749    5.2867    0.0265 C   0  0  0  0  0  0  0  0  0  0  0  0
    1.6557    5.3555    0.0139 C   0  0  0  0  0  0  0  0  0  0  0  0
    2.1692    4.1126    0.0029 N   0  0  0  0  0  0  0  0  0  0  0  0
    3.6012    3.8039   -0.0113 C   0  0  0  0  0  0  0  0  0  0  0  0
    4.0604    3.5801   -1.4535 C   0  0  0  0  0  0  0  0  0  0  0  0
    3.3727    2.3366   -2.0206 C   0  0  0  0  0  0  0  0  0  0  0  0
    3.8319    2.1128   -3.4628 C   0  0  0  0  0  0  0  0  0  0  0  0
    5.3487    1.9139   -3.4901 C   0  0  0  0  0  0  0  0  0  0  0  0
    6.0364    3.1574   -2.9230 C   0  0  0  0  0  0  0  0  0  0  0  0
    5.5772    3.3812   -1.4808 C   0  0  0  0  0  0  0  0  0  0  0  0
   -0.6605    6.4099    0.0416 C   0  0  0  0  0  0  0  0  0  0  0  0
   -1.8584    6.2031    0.0521 O   0  0  0  0  0  0  0  0  0  0  0  0
   -0.1454    7.8094    0.0441 C   0  0  0  0  0  0  0  0  0  0  0  0
    1.0498    8.0157    0.0336 O   0  0  0  0  0  0  0  0  0  0  0  0
   -7.2882    0.2398    0.9318 H   0  0  0  0  0  0  0  0  0  0  0  0
   -7.2980    0.2483   -0.8481 H   0  0  0  0  0  0  0  0  0  0  0  0
   -8.1093   -1.0637    0.0401 H   0  0  0  0  0  0  0  0  0  0  0  0
   -3.6490   -2.1939    0.0094 H   0  0  0  0  0  0  0  0  0  0  0  0
   -1.5392   -0.9305    0.0053 H   0  0  0  0  0  0  0  0  0  0  0  0
   -3.7481    2.7411    0.0452 H   0  0  0  0  0  0  0  0  0  0  0  0
   -5.8527    1.4691    0.0402 H   0  0  0  0  0  0  0  0  0  0  0  0
    0.0021   -0.0041    0.0020 H   0  0  0  0  0  0  0  0  0  0  0  0
    2.1120    1.2420   -0.0107 H   0  0  0  0  0  0  0  0  0  0  0  0
   -2.2031    3.6690    0.0411 H   0  0  0  0  0  0  0  0  0  0  0  0
    2.2336    6.2679    0.0131 H   0  0  0  0  0  0  0  0  0  0  0  0
    4.1565    4.6358    0.4218 H   0  0  0  0  0  0  0  0  0  0  0  0
    3.7842    2.9017    0.5724 H   0  0  0  0  0  0  0  0  0  0  0  0
    3.7969    4.4483   -2.0576 H   0  0  0  0  0  0  0  0  0  0  0  0
    3.6362    1.4684   -1.4166 H   0  0  0  0  0  0  0  0  0  0  0  0
    2.2921    2.4783   -2.0012 H   0  0  0  0  0  0  0  0  0  0  0  0
    3.5684    2.9811   -4.0669 H   0  0  0  0  0  0  0  0  0  0  0  0
    3.3419    1.2269   -3.8668 H   0  0  0  0  0  0  0  0  0  0  0  0
    5.6758    1.7545   -4.5175 H   0  0  0  0  0  0  0  0  0  0  0  0
    5.6121    1.0457   -2.8860 H   0  0  0  0  0  0  0  0  0  0  0  0
    5.7729    4.0256   -3.5270 H   0  0  0  0  0  0  0  0  0  0  0  0
    7.1170    3.0157   -2.9424 H   0  0  0  0  0  0  0  0  0  0  0  0
    6.0671    4.2671   -1.0768 H   0  0  0  0  0  0  0  0  0  0  0  0
    5.8407    2.5130   -0.8767 H   0  0  0  0  0  0  0  0  0  0  0  0
   -1.0065    8.8434    0.0581 O   0  5  0  0  0  0  0  0  0  0  0  0
  1  2  1  0  0  0  0
  1 29  1  0  0  0  0
  1 30  1  0  0  0  0
  1 31  1  0  0  0  0
  2  3  1  0  0  0  0
  3  8  2  0  0  0  0
  3  4  1  0  0  0  0
  4  5  2  0  0  0  0
  4 32  1  0  0  0  0
  5  6  1  0  0  0  0
  5 33  1  0  0  0  0
  6  7  2  0  0  0  0
  6  9  1  0  0  0  0
  7  8  1  0  0  0  0
  7 34  1  0  0  0  0
  8 35  1  0  0  0  0
  9 14  2  0  0  0  0
  9 10  1  0  0  0  0
 10 11  2  0  0  0  0
 10 36  1  0  0  0  0
 11 12  1  0  0  0  0
 11 37  1  0  0  0  0
 12 17  1  0  0  0  0
 12 13  2  0  0  0  0
 13 14  1  0  0  0  0
 13 15  1  0  0  0  0
 14 38  1  0  0  0  0
 15 16  2  0  0  0  0
 15 25  1  0  0  0  0
 16 17  1  0  0  0  0
 16 39  1  0  0  0  0
 17 18  1  0  0  0  0
 18 19  1  0  0  0  0
 18 40  1  0  0  0  0
 18 41  1  0  0  0  0
 19 24  1  0  0  0  0
 19 20  1  0  0  0  0
 19 42  1  0  0  0  0
 20 21  1  0  0  0  0
 20 43  1  0  0  0  0
 20 44  1  0  0  0  0
 21 22  1  0  0  0  0
 21 45  1  0  0  0  0
 21 46  1  0  0  0  0
 22 23  1  0  0  0  0
 22 47  1  0  0  0  0
 22 48  1  0  0  0  0
 23 24  1  0  0  0  0
 23 49  1  0  0  0  0
 23 50  1  0  0  0  0
 24 51  1  0  0  0  0
 24 52  1  0  0  0  0
 25 26  2  0  0  0  0
 25 27  1  0  0  0  0
 27 28  2  0  0  0  0
 27 53  1  0  0  0  0
M  CHG  1  53  -1
M  END
$$$$
ZINC01554360
  -OEChem-08230709463D

 52 55  0     0  0  0  0  0  0999 V2000
   -6.0233    3.3716    1.1197 C   0  0  0  0  0  0  0  0  0  0  0  0
   -5.9924    2.0354    0.5199 N   0  0  0  0  0  0  0  0  0  0  0  0
   -7.0829    1.2052    0.3481 C   0  0  0  0  0  0  0  0  0  0  0  0
   -8.4280    1.3354    0.6499 C   0  0  0  0  0  0  0  0  0  0  0  0
   -9.3066    0.2928    0.3542 C   0  0  0  0  0  0  0  0  0  0  0  0
   -8.8320   -0.8830   -0.2473 C   0  0  0  0  0  0  0  0  0  0  0  0
   -7.5119   -1.0188   -0.5475 C   0  0  0  0  0  0  0  0  0  0  0  0
   -6.6150    0.0200   -0.2562 C   0  0  0  0  0  0  0  0  0  0  0  0
   -5.2213    0.1768   -0.4412 C   0  0  0  0  0  0  0  0  0  0  0  0
   -4.8737    1.4022    0.0323 C   0  0  0  0  0  0  0  0  0  0  0  0
   -3.5075    1.9632    0.0293 C   0  0  0  0  0  0  0  0  0  0  0  0
   -3.3148    3.3187    0.0358 C   0  0  0  0  0  0  0  0  0  0  0  0
   -1.5290    3.4020    0.0357 S   0  0  0  0  0  0  0  0  0  0  0  0
   -1.2198    1.6420    0.0168 C   0  0  0  0  0  0  0  0  0  0  0  0
   -2.4468    1.1563    0.0199 N   0  0  0  0  0  0  0  0  0  0  0  0
   -0.0111    0.9658    0.0074 N   0  0  0  0  0  0  0  0  0  0  0  0
    1.2475    1.7155   -0.0006 C   0  0  0  0  0  0  0  0  0  0  0  0
    2.4238    0.7372   -0.0171 C   0  0  0  0  0  0  0  0  0  0  0  0
    2.4142    0.0014   -1.2421 O   0  0  0  0  0  0  0  0  0  0  0  0
    3.4779   -0.9455   -1.3596 C   0  0  0  0  0  0  0  0  0  0  0  0
   -4.2879   -0.8354   -1.0537 C   0  0  0  0  0  0  0  0  0  0  0  0
   -4.7530   -1.1868   -2.4820 C   0  0  0  0  0  0  0  0  0  0  0  0
   -4.4570   -2.7021   -2.6150 C   0  0  0  0  0  0  0  0  0  0  0  0
   -4.8109   -3.2451   -1.2082 C   0  0  0  0  0  0  0  0  0  0  0  0
   -4.3242   -2.1435   -0.2441 C   0  0  0  0  0  0  0  0  0  0  0  0
  -10.7384    0.4269    0.6740 C   0  0  0  0  0  0  0  0  0  0  0  0
  -11.1520    1.4441    1.1949 O   0  0  0  0  0  0  0  0  0  0  0  0
   -6.2015    4.1148    0.3425 H   0  0  0  0  0  0  0  0  0  0  0  0
   -6.8231    3.4198    1.8587 H   0  0  0  0  0  0  0  0  0  0  0  0
   -5.0682    3.5745    1.6043 H   0  0  0  0  0  0  0  0  0  0  0  0
   -8.7952    2.2395    1.1128 H   0  0  0  0  0  0  0  0  0  0  0  0
   -9.5190   -1.6850   -0.4736 H   0  0  0  0  0  0  0  0  0  0  0  0
   -7.1543   -1.9265   -1.0107 H   0  0  0  0  0  0  0  0  0  0  0  0
   -4.0415    4.1177    0.0435 H   0  0  0  0  0  0  0  0  0  0  0  0
    0.0021   -0.0041    0.0020 H   0  0  0  0  0  0  0  0  0  0  0  0
    1.2883    2.3477   -0.8877 H   0  0  0  0  0  0  0  0  0  0  0  0
    1.3053    2.3381    0.8922 H   0  0  0  0  0  0  0  0  0  0  0  0
    3.3586    1.2915    0.0665 H   0  0  0  0  0  0  0  0  0  0  0  0
    2.3342    0.0472    0.8219 H   0  0  0  0  0  0  0  0  0  0  0  0
    3.4103   -1.6705   -0.5485 H   0  0  0  0  0  0  0  0  0  0  0  0
    3.4003   -1.4623   -2.3162 H   0  0  0  0  0  0  0  0  0  0  0  0
    4.4346   -0.4262   -1.3038 H   0  0  0  0  0  0  0  0  0  0  0  0
   -3.2725   -0.4397   -1.0784 H   0  0  0  0  0  0  0  0  0  0  0  0
   -5.8203   -0.9955   -2.5935 H   0  0  0  0  0  0  0  0  0  0  0  0
   -4.1838   -0.6200   -3.2188 H   0  0  0  0  0  0  0  0  0  0  0  0
   -3.4041   -2.8710   -2.8406 H   0  0  0  0  0  0  0  0  0  0  0  0
   -5.0935   -3.1549   -3.3752 H   0  0  0  0  0  0  0  0  0  0  0  0
   -4.2840   -4.1798   -1.0164 H   0  0  0  0  0  0  0  0  0  0  0  0
   -5.8875   -3.3865   -1.1136 H   0  0  0  0  0  0  0  0  0  0  0  0
   -3.3264   -2.3830    0.1234 H   0  0  0  0  0  0  0  0  0  0  0  0
   -5.0163   -2.0458    0.5923 H   0  0  0  0  0  0  0  0  0  0  0  0
  -11.5896   -0.5785    0.3890 O   0  5  0  0  0  0  0  0  0  0  0  0
  1  2  1  0  0  0  0
  1 28  1  0  0  0  0
  1 29  1  0  0  0  0
  1 30  1  0  0  0  0
  2 10  1  0  0  0  0
  2  3  1  0  0  0  0
  3  8  2  0  0  0  0
  3  4  1  0  0  0  0
  4  5  2  0  0  0  0
  4 31  1  0  0  0  0
  5  6  1  0  0  0  0
  5 26  1  0  0  0  0
  6  7  2  0  0  0  0
  6 32  1  0  0  0  0
  7  8  1  0  0  0  0
  7 33  1  0  0  0  0
  8  9  1  0  0  0  0
  9 10  2  0  0  0  0
  9 21  1  0  0  0  0
 10 11  1  0  0  0  0
 11 15  1  0  0  0  0
 11 12  2  0  0  0  0
 12 13  1  0  0  0  0
 12 34  1  0  0  0  0
 13 14  1  0  0  0  0
 14 15  2  0  0  0  0
 14 16  1  0  0  0  0
 16 17  1  0  0  0  0
 16 35  1  0  0  0  0
 17 18  1  0  0  0  0
 17 36  1  0  0  0  0
 17 37  1  0  0  0  0
 18 19  1  0  0  0  0
 18 38  1  0  0  0  0
 18 39  1  0  0  0  0
 19 20  1  0  0  0  0
 20 40  1  0  0  0  0
 20 41  1  0  0  0  0
 20 42  1  0  0  0  0
 21 25  1  0  0  0  0
 21 22  1  0  0  0  0
 21 43  1  0  0  0  0
 22 23  1  0  0  0  0
 22 44  1  0  0  0  0
 22 45  1  0  0  0  0
 23 24  1  0  0  0  0
 23 46  1  0  0  0  0
 23 47  1  0  0  0  0
 24 25  1  0  0  0  0
 24 48  1  0  0  0  0
 24 49  1  0  0  0  0
 25 50  1  0  0  0  0
 25 51  1  0  0  0  0
 26 27  2  0  0  0  0
 26 52  1  0  0  0  0
M  CHG  1  52  -1
M  END
$$$$
ZINC01612179
  -OEChem-08230709463D

 68 71  0     1  0  0  0  0  0999 V2000
    0.1844    7.5952    4.6735 C   0  0  0  0  0  0  0  0  0  0  0  0
    1.4337    7.8017    5.5330 C   0  0  0  0  0  0  0  0  0  0  0  0
    1.7246    9.2977    5.6363 C   0  0  0  0  0  0  0  0  0  0  0  0
    2.3327    9.7811    4.3205 C   0  0  0  0  0  0  0  0  0  0  0  0
    3.6948    9.1272    4.1650 C   0  0  0  0  0  0  0  0  0  0  0  0
    3.6215    7.5939    4.1113 C   0  0  1  0  0  0  0  0  0  0  0  0
    2.6156    6.9909    5.0490 C   0  0  2  0  0  0  0  0  0  0  0  0
    3.2219    6.8449    6.0114 H   0  0  0  0  0  0  0  0  0  0  0  0
    2.2039    5.5636    4.7109 C   0  0  0  0  0  0  0  0  0  0  0  0
    1.9392    5.3445    3.2267 C   0  0  0  0  0  0  0  0  0  0  0  0
    3.1789    5.7151    2.4215 C   0  0  2  0  0  0  0  0  0  0  0  0
    3.5037    7.1828    2.6419 C   0  0  1  0  0  0  0  0  0  0  0  0
    4.4778    7.3917    2.1595 H   0  0  0  0  0  0  0  0  0  0  0  0
    2.4678    8.1060    1.9899 C   0  0  0  0  0  0  0  0  0  0  0  0
    2.3330    7.8453    0.4887 C   0  0  0  0  0  0  0  0  0  0  0  0
    1.9967    6.3766    0.3273 C   0  0  0  0  0  0  0  0  0  0  0  0
    0.9154    5.9798   -0.2983 C   0  0  0  0  0  0  0  0  0  0  0  0
    0.5621    4.6701   -0.2782 O   0  0  0  0  0  0  0  0  0  0  0  0
   -0.6474    4.3419   -1.1418 S   0  0  0  0  0  0  0  0  0  0  0  0
   -0.9942    2.9931   -0.8592 O   0  0  0  0  0  0  0  0  0  0  0  0
   -1.5653    5.4145   -0.9798 O   0  0  0  0  0  0  0  0  0  0  0  0
    2.9831    5.4098    0.9300 C   0  0  2  0  0  0  0  0  0  0  0  0
    3.9535    5.5426    0.4287 H   0  0  0  0  0  0  0  0  0  0  0  0
    2.5221    3.9714    0.7179 C   0  0  0  0  0  0  0  0  0  0  0  0
    3.6563    3.0128    1.0859 C   0  0  0  0  0  0  0  0  0  0  0  0
    3.6044    1.8045    0.1868 C   0  0  0  0  0  0  0  0  0  0  0  0
    4.1768    1.6872   -1.1007 C   0  0  0  0  0  0  0  0  0  0  0  0
    3.8926    0.4487   -1.5421 C   0  0  0  0  0  0  0  0  0  0  0  0
    3.1825   -0.1866   -0.5955 O   0  0  0  0  0  0  0  0  0  0  0  0
    3.0048    0.6308    0.4552 C   0  0  0  0  0  0  0  0  0  0  0  0
    4.3431    4.8074    2.8563 C   0  0  0  0  0  0  0  0  0  0  0  0
    5.0325    7.1678    4.6210 C   0  0  0  0  0  0  0  0  0  0  0  0
    1.0811    7.3236    6.9642 C   0  0  0  0  0  0  0  0  0  0  0  0
   -0.1480    6.5606    4.7584 H   0  0  0  0  0  0  0  0  0  0  0  0
   -0.6073    8.2607    5.0175 H   0  0  0  0  0  0  0  0  0  0  0  0
    0.4189    7.8173    3.6325 H   0  0  0  0  0  0  0  0  0  0  0  0
    0.7969    9.8375    5.8287 H   0  0  0  0  0  0  0  0  0  0  0  0
    2.4250    9.4787    6.4511 H   0  0  0  0  0  0  0  0  0  0  0  0
    1.6763    9.5451    3.4911 H   0  0  0  0  0  0  0  0  0  0  0  0
    2.4549   10.8697    4.3668 H   0  0  0  0  0  0  0  0  0  0  0  0
    4.3272    9.4068    5.0177 H   0  0  0  0  0  0  0  0  0  0  0  0
    4.1850    9.4899    3.2584 H   0  0  0  0  0  0  0  0  0  0  0  0
    2.9891    4.8769    5.0544 H   0  0  0  0  0  0  0  0  0  0  0  0
    1.3073    5.2804    5.2749 H   0  0  0  0  0  0  0  0  0  0  0  0
    1.0913    5.9360    2.8898 H   0  0  0  0  0  0  0  0  0  0  0  0
    1.6952    4.2857    3.0844 H   0  0  0  0  0  0  0  0  0  0  0  0
    1.4983    7.9559    2.4596 H   0  0  0  0  0  0  0  0  0  0  0  0
    2.7795    9.1458    2.1224 H   0  0  0  0  0  0  0  0  0  0  0  0
    1.5298    8.4533    0.0765 H   0  0  0  0  0  0  0  0  0  0  0  0
    3.2709    8.0668   -0.0153 H   0  0  0  0  0  0  0  0  0  0  0  0
    0.3056    6.6955   -0.8297 H   0  0  0  0  0  0  0  0  0  0  0  0
    2.2497    3.8277   -0.3277 H   0  0  0  0  0  0  0  0  0  0  0  0
    1.6569    3.7703    1.3497 H   0  0  0  0  0  0  0  0  0  0  0  0
    3.5441    2.6986    2.1236 H   0  0  0  0  0  0  0  0  0  0  0  0
    4.6140    3.5180    0.9608 H   0  0  0  0  0  0  0  0  0  0  0  0
    4.7384    2.4449   -1.6269 H   0  0  0  0  0  0  0  0  0  0  0  0
    4.1853    0.0355   -2.4960 H   0  0  0  0  0  0  0  0  0  0  0  0
    2.4713    0.3868    1.3620 H   0  0  0  0  0  0  0  0  0  0  0  0
    5.0917    4.7723    2.0648 H   0  0  0  0  0  0  0  0  0  0  0  0
    4.7940    5.2052    3.7655 H   0  0  0  0  0  0  0  0  0  0  0  0
    3.9683    3.8017    3.0466 H   0  0  0  0  0  0  0  0  0  0  0  0
    5.7603    7.2880    3.8185 H   0  0  0  0  0  0  0  0  0  0  0  0
    5.3175    7.7935    5.4667 H   0  0  0  0  0  0  0  0  0  0  0  0
    5.0058    6.1240    4.9339 H   0  0  0  0  0  0  0  0  0  0  0  0
    1.9380    7.4777    7.6201 H   0  0  0  0  0  0  0  0  0  0  0  0
    0.2303    7.8931    7.3382 H   0  0  0  0  0  0  0  0  0  0  0  0
    0.8272    6.2639    6.9410 H   0  0  0  0  0  0  0  0  0  0  0  0
   -0.1877    4.3781   -2.5923 O   0  5  0  0  0  0  0  0  0  0  0  0
  1  2  1  0  0  0  0
  1 34  1  0  0  0  0
  1 35  1  0  0  0  0
  1 36  1  0  0  0  0
  2  7  1  0  0  0  0
  2  3  1  0  0  0  0
  2 33  1  0  0  0  0
  3  4  1  0  0  0  0
  3 37  1  0  0  0  0
  3 38  1  0  0  0  0
  4  5  1  0  0  0  0
  4 39  1  0  0  0  0
  4 40  1  0  0  0  0
  5  6  1  0  0  0  0
  5 41  1  0  0  0  0
  5 42  1  0  0  0  0
  6 12  1  0  0  0  0
  6  7  1  0  0  0  0
  6 32  1  0  0  0  0
  7  8  1  0  0  0  0
  7  9  1  0  0  0  0
  9 10  1  0  0  0  0
  9 43  1  0  0  0  0
  9 44  1  0  0  0  0
 10 11  1  0  0  0  0
 10 45  1  0  0  0  0
 10 46  1  0  0  0  0
 11 22  1  0  0  0  0
 11 12  1  0  0  0  0
 11 31  1  0  0  0  0
 12 13  1  0  0  0  0
 12 14  1  0  0  0  0
 14 15  1  0  0  0  0
 14 47  1  0  0  0  0
 14 48  1  0  0  0  0
 15 16  1  0  0  0  0
 15 49  1  0  0  0  0
 15 50  1  0  0  0  0
 16 17  2  0  0  0  0
 16 22  1  0  0  0  0
 17 18  1  0  0  0  0
 17 51  1  0  0  0  0
 18 19  1  0  0  0  0
 19 20  2  0  0  0  0
 19 21  2  0  0  0  0
 19 68  1  0  0  0  0
 22 23  1  0  0  0  0
 22 24  1  0  0  0  0
 24 25  1  0  0  0  0
 24 52  1  0  0  0  0
 24 53  1  0  0  0  0
 25 26  1  0  0  0  0
 25 54  1  0  0  0  0
 25 55  1  0  0  0  0
 26 30  2  0  0  0  0
 26 27  1  0  0  0  0
 27 28  2  0  0  0  0
 27 56  1  0  0  0  0
 28 29  1  0  0  0  0
 28 57  1  0  0  0  0
 29 30  1  0  0  0  0
 30 58  1  0  0  0  0
 31 59  1  0  0  0  0
 31 60  1  0  0  0  0
 31 61  1  0  0  0  0
 32 62  1  0  0  0  0
 32 63  1  0  0  0  0
 32 64  1  0  0  0  0
 33 65  1  0  0  0  0
 33 66  1  0  0  0  0
 33 67  1  0  0  0  0
M  CHG  1  68  -1
M  END
$$$$
ZINC01692271
  -OEChem-08230709463D

 61 66  0     1  0  0  0  0  0999 V2000
    4.1803    2.2341   -1.2022 C   0  0  0  0  0  0  0  0  0  0  0  0
    3.9427    2.9659    0.1232 C   0  0  1  0  0  0  0  0  0  0  0  0
    2.9570    4.0851   -0.0761 C   0  0  0  0  0  0  0  0  0  0  0  0
    1.5263    3.6106    0.2425 C   0  0  0  0  0  0  0  0  0  0  0  0
    1.3774    2.1274   -0.0506 C   0  0  1  0  0  0  0  0  0  0  0  0
    1.7555    1.9304   -1.0602 H   0  0  0  0  0  0  0  0  0  0  0  0
    2.2006    1.3108    0.9513 C   0  0  2  0  0  0  0  0  0  0  0  0
    1.6255    1.2461    1.8953 H   0  0  0  0  0  0  0  0  0  0  0  0
    3.4858    2.0084    1.2440 C   0  0  1  0  0  0  0  0  0  0  0  0
    3.3592    2.5947    2.1834 H   0  0  0  0  0  0  0  0  0  0  0  0
    4.7605    1.1591    1.3999 C   0  0  0  0  0  0  0  0  0  0  0  0
    5.8278    2.2323    1.3167 C   0  0  0  0  0  0  0  0  0  0  0  0
    5.3128    3.3510    0.6178 C   0  0  0  0  0  0  0  0  0  0  0  0
    6.0033    4.4471    0.4452 N   0  0  0  0  0  0  0  0  0  0  0  0
    7.2697    4.5029    0.8895 C   0  0  0  0  0  0  0  0  0  0  0  0
    8.0127    5.6848    0.6974 C   0  0  0  0  0  0  0  0  0  0  0  0
    9.3122    5.7412    1.0919 C   0  0  0  0  0  0  0  0  0  0  0  0
    9.9247    4.6439    1.6923 C   0  0  0  0  0  0  0  0  0  0  0  0
    9.2285    3.4940    1.9217 C   0  0  0  0  0  0  0  0  0  0  0  0
    7.8817    3.4047    1.5437 C   0  0  0  0  0  0  0  0  0  0  0  0
    7.1268    2.2212    1.7989 C   0  0  0  0  0  0  0  0  0  0  0  0
    7.6775    1.0561    2.5231 C   0  0  0  0  0  0  0  0  0  0  0  0
    8.2382    0.1698    1.9104 O   0  0  0  0  0  0  0  0  0  0  0  0
    2.3380   -0.1071    0.4049 C   0  0  0  0  0  0  0  0  0  0  0  0
    0.9528   -0.6304    0.1250 C   0  0  0  0  0  0  0  0  0  0  0  0
   -0.0882    0.1248   -0.0853 C   0  0  0  0  0  0  0  0  0  0  0  0
   -0.0606    1.6306   -0.0683 C   0  0  2  0  0  0  0  0  0  0  0  0
   -0.7578    2.1750   -1.3168 C   0  0  0  0  0  0  0  0  0  0  0  0
   -2.1219    1.5271   -1.5231 C   0  0  0  0  0  0  0  0  0  0  0  0
   -1.9779    0.0123   -1.6712 C   0  0  2  0  0  0  0  0  0  0  0  0
   -2.9551   -0.4299   -1.8691 H   0  0  0  0  0  0  0  0  0  0  0  0
   -1.4090   -0.5668   -0.3724 C   0  0  0  0  0  0  0  0  0  0  0  0
   -1.0944   -0.2838   -2.7538 O   0  0  0  0  0  0  0  0  0  0  0  0
   -0.7924    2.1314    1.1735 C   0  0  0  0  0  0  0  0  0  0  0  0
    3.2958    1.6511   -1.4590 H   0  0  0  0  0  0  0  0  0  0  0  0
    4.3766    2.9623   -1.9892 H   0  0  0  0  0  0  0  0  0  0  0  0
    5.0375    1.5684   -1.1011 H   0  0  0  0  0  0  0  0  0  0  0  0
    3.2135    4.9220    0.5844 H   0  0  0  0  0  0  0  0  0  0  0  0
    3.0010    4.4404   -1.1106 H   0  0  0  0  0  0  0  0  0  0  0  0
    1.3222    3.8056    1.2989 H   0  0  0  0  0  0  0  0  0  0  0  0
    0.8161    4.1821   -0.3610 H   0  0  0  0  0  0  0  0  0  0  0  0
    4.7754    0.6771    2.3809 H   0  0  0  0  0  0  0  0  0  0  0  0
    4.8648    0.4240    0.6117 H   0  0  0  0  0  0  0  0  0  0  0  0
    7.5502    6.5451    0.2368 H   0  0  0  0  0  0  0  0  0  0  0  0
    9.8791    6.6460    0.9299 H   0  0  0  0  0  0  0  0  0  0  0  0
   10.9643    4.7016    1.9793 H   0  0  0  0  0  0  0  0  0  0  0  0
    9.7350    2.6627    2.3894 H   0  0  0  0  0  0  0  0  0  0  0  0
    2.8182   -0.7447    1.1494 H   0  0  0  0  0  0  0  0  0  0  0  0
    2.9198   -0.1132   -0.5126 H   0  0  0  0  0  0  0  0  0  0  0  0
    0.8159   -1.7032    0.0921 H   0  0  0  0  0  0  0  0  0  0  0  0
   -0.8856    3.2557   -1.2120 H   0  0  0  0  0  0  0  0  0  0  0  0
   -0.1284    1.9864   -2.1897 H   0  0  0  0  0  0  0  0  0  0  0  0
   -2.5727    1.9282   -2.4382 H   0  0  0  0  0  0  0  0  0  0  0  0
   -2.7819    1.7527   -0.6875 H   0  0  0  0  0  0  0  0  0  0  0  0
   -1.2413   -1.6382   -0.4958 H   0  0  0  0  0  0  0  0  0  0  0  0
   -2.1068   -0.3986    0.4447 H   0  0  0  0  0  0  0  0  0  0  0  0
   -0.9554   -1.2294   -2.9007 H   0  0  0  0  0  0  0  0  0  0  0  0
   -0.2992    1.7462    2.0660 H   0  0  0  0  0  0  0  0  0  0  0  0
   -0.7753    3.2211    1.1906 H   0  0  0  0  0  0  0  0  0  0  0  0
   -1.8255    1.7846    1.1510 H   0  0  0  0  0  0  0  0  0  0  0  0
    7.5575    0.9773    3.8626 O   0  5  0  0  0  0  0  0  0  0  0  0
  1  2  1  0  0  0  0
  1 35  1  0  0  0  0
  1 36  1  0  0  0  0
  1 37  1  0  0  0  0
  2  9  1  0  0  0  0
  2 13  1  0  0  0  0
  2  3  1  0  0  0  0
  3  4  1  0  0  0  0
  3 38  1  0  0  0  0
  3 39  1  0  0  0  0
  4  5  1  0  0  0  0
  4 40  1  0  0  0  0
  4 41  1  0  0  0  0
  5  6  1  0  0  0  0
  5 27  1  0  0  0  0
  5  7  1  0  0  0  0
  7  8  1  0  0  0  0
  7  9  1  0  0  0  0
  7 24  1  0  0  0  0
  9 10  1  0  0  0  0
  9 11  1  0  0  0  0
 11 12  1  0  0  0  0
 11 42  1  0  0  0  0
 11 43  1  0  0  0  0
 12 21  2  0  0  0  0
 12 13  1  0  0  0  0
 13 14  2  0  0  0  0
 14 15  1  0  0  0  0
 15 20  2  0  0  0  0
 15 16  1  0  0  0  0
 16 17  2  0  0  0  0
 16 44  1  0  0  0  0
 17 18  1  0  0  0  0
 17 45  1  0  0  0  0
 18 19  2  0  0  0  0
 18 46  1  0  0  0  0
 19 20  1  0  0  0  0
 19 47  1  0  0  0  0
 20 21  1  0  0  0  0
 21 22  1  0  0  0  0
 22 23  2  0  0  0  0
 22 61  1  0  0  0  0
 24 25  1  0  0  0  0
 24 48  1  0  0  0  0
 24 49  1  0  0  0  0
 25 26  2  0  0  0  0
 25 50  1  0  0  0  0
 26 32  1  0  0  0  0
 26 27  1  0  0  0  0
 27 28  1  0  0  0  0
 27 34  1  0  0  0  0
 28 29  1  0  0  0  0
 28 51  1  0  0  0  0
 28 52  1  0  0  0  0
 29 30  1  0  0  0  0
 29 53  1  0  0  0  0
 29 54  1  0  0  0  0
 30 31  1  0  0  0  0
 30 32  1  0  0  0  0
 30 33  1  0  0  0  0
 32 55  1  0  0  0  0
 32 56  1  0  0  0  0
 33 57  1  0  0  0  0
 34 58  1  0  0  0  0
 34 59  1  0  0  0  0
 34 60  1  0  0  0  0
M  CHG  1  61  -1
M  END
$$$$
ZINC01704218
  -OEChem-08230709463D

 58 59  0     0  0  0  0  0  0999 V2000
   11.2493   -4.2600    1.5442 C   0  0  0  0  0  0  0  0  0  0  0  0
   11.1536   -3.2240    0.4224 C   0  0  0  0  0  0  0  0  0  0  0  0
   11.6256   -3.8500   -0.8915 C   0  0  0  0  0  0  0  0  0  0  0  0
   12.0376   -2.0222    0.7613 C   0  0  0  0  0  0  0  0  0  0  0  0
    9.7018   -2.7640    0.2756 C   0  0  0  0  0  0  0  0  0  0  0  0
    9.0988   -2.5283    1.6619 C   0  0  0  0  0  0  0  0  0  0  0  0
   10.1066   -1.7790    2.5357 C   0  0  0  0  0  0  0  0  0  0  0  0
    8.7648   -3.8742    2.3083 C   0  0  0  0  0  0  0  0  0  0  0  0
    7.8411   -1.7086    1.5299 C   0  0  0  0  0  0  0  0  0  0  0  0
    7.1178   -1.3678    2.6579 C   0  0  0  0  0  0  0  0  0  0  0  0
    5.9647   -0.6165    2.5396 C   0  0  0  0  0  0  0  0  0  0  0  0
    5.5325   -0.2037    1.2876 C   0  0  0  0  0  0  0  0  0  0  0  0
    6.2569   -0.5518    0.1568 C   0  0  0  0  0  0  0  0  0  0  0  0
    7.4128   -1.2981    0.2810 C   0  0  0  0  0  0  0  0  0  0  0  0
    4.3984    0.5355    1.1686 O   0  0  0  0  0  0  0  0  0  0  0  0
    4.0135    0.9253   -0.1513 C   0  0  0  0  0  0  0  0  0  0  0  0
    2.7231    1.7446   -0.0853 C   0  0  0  0  0  0  0  0  0  0  0  0
    2.9700    2.9668    0.6129 O   0  0  0  0  0  0  0  0  0  0  0  0
    1.9202    3.8154    0.7605 C   0  0  0  0  0  0  0  0  0  0  0  0
    0.6778    3.4767    0.2428 C   0  0  0  0  0  0  0  0  0  0  0  0
   -0.3896    4.3366    0.3847 C   0  0  0  0  0  0  0  0  0  0  0  0
   -0.2261    5.5490    1.0604 C   0  0  0  0  0  0  0  0  0  0  0  0
    1.0245    5.8917    1.5824 C   0  0  0  0  0  0  0  0  0  0  0  0
    2.0929    5.0267    1.4321 C   0  0  0  0  0  0  0  0  0  0  0  0
    3.3470    5.3656    1.9536 N   0  0  0  0  0  0  0  0  0  0  0  0
   -1.3694    6.4672    1.2180 C   0  0  0  0  0  0  0  0  0  0  0  0
   -1.2247    7.5228    1.8021 O   0  0  0  0  0  0  0  0  0  0  0  0
   10.5851   -5.0959    1.3245 H   0  0  0  0  0  0  0  0  0  0  0  0
   12.2751   -4.6209    1.6189 H   0  0  0  0  0  0  0  0  0  0  0  0
   10.9559   -3.8013    2.4885 H   0  0  0  0  0  0  0  0  0  0  0  0
   11.5574   -3.1119   -1.6907 H   0  0  0  0  0  0  0  0  0  0  0  0
   12.6598   -4.1777   -0.7869 H   0  0  0  0  0  0  0  0  0  0  0  0
   10.9957   -4.7062   -1.1329 H   0  0  0  0  0  0  0  0  0  0  0  0
   11.8080   -1.6748    1.7686 H   0  0  0  0  0  0  0  0  0  0  0  0
   13.0860   -2.3158    0.7084 H   0  0  0  0  0  0  0  0  0  0  0  0
   11.8487   -1.2196    0.0483 H   0  0  0  0  0  0  0  0  0  0  0  0
    9.1283   -3.5313   -0.2444 H   0  0  0  0  0  0  0  0  0  0  0  0
    9.6705   -1.8368   -0.2966 H   0  0  0  0  0  0  0  0  0  0  0  0
    9.6606   -1.5716    3.5085 H   0  0  0  0  0  0  0  0  0  0  0  0
   10.9986   -2.3913    2.6681 H   0  0  0  0  0  0  0  0  0  0  0  0
   10.3786   -0.8402    2.0532 H   0  0  0  0  0  0  0  0  0  0  0  0
    8.1758   -4.4742    1.6146 H   0  0  0  0  0  0  0  0  0  0  0  0
    9.6883   -4.4003    2.5501 H   0  0  0  0  0  0  0  0  0  0  0  0
    8.1923   -3.7070    3.2206 H   0  0  0  0  0  0  0  0  0  0  0  0
    7.4549   -1.6891    3.6324 H   0  0  0  0  0  0  0  0  0  0  0  0
    5.4002   -0.3503    3.4211 H   0  0  0  0  0  0  0  0  0  0  0  0
    5.9200   -0.2355   -0.8194 H   0  0  0  0  0  0  0  0  0  0  0  0
    7.9798   -1.5649   -0.5986 H   0  0  0  0  0  0  0  0  0  0  0  0
    3.8484    0.0358   -0.7592 H   0  0  0  0  0  0  0  0  0  0  0  0
    4.8044    1.5284   -0.5972 H   0  0  0  0  0  0  0  0  0  0  0  0
    1.9571    1.1743    0.4402 H   0  0  0  0  0  0  0  0  0  0  0  0
    2.3814    1.9664   -1.0963 H   0  0  0  0  0  0  0  0  0  0  0  0
    0.5483    2.5386   -0.2765 H   0  0  0  0  0  0  0  0  0  0  0  0
   -1.3540    4.0717   -0.0230 H   0  0  0  0  0  0  0  0  0  0  0  0
    1.1560    6.8296    2.1014 H   0  0  0  0  0  0  0  0  0  0  0  0
    4.0962    4.7586    1.8483 H   0  0  0  0  0  0  0  0  0  0  0  0
    3.4668    6.2075    2.4203 H   0  0  0  0  0  0  0  0  0  0  0  0
   -2.5743    6.1355    0.7143 O   0  5  0  0  0  0  0  0  0  0  0  0
  1  2  1  0  0  0  0
  1 28  1  0  0  0  0
  1 29  1  0  0  0  0
  1 30  1  0  0  0  0
  2  3  1  0  0  0  0
  2  4  1  0  0  0  0
  2  5  1  0  0  0  0
  3 31  1  0  0  0  0
  3 32  1  0  0  0  0
  3 33  1  0  0  0  0
  4 34  1  0  0  0  0
  4 35  1  0  0  0  0
  4 36  1  0  0  0  0
  5  6  1  0  0  0  0
  5 37  1  0  0  0  0
  5 38  1  0  0  0  0
  6  7  1  0  0  0  0
  6  8  1  0  0  0  0
  6  9  1  0  0  0  0
  7 39  1  0  0  0  0
  7 40  1  0  0  0  0
  7 41  1  0  0  0  0
  8 42  1  0  0  0  0
  8 43  1  0  0  0  0
  8 44  1  0  0  0  0
  9 14  2  0  0  0  0
  9 10  1  0  0  0  0
 10 11  2  0  0  0  0
 10 45  1  0  0  0  0
 11 12  1  0  0  0  0
 11 46  1  0  0  0  0
 12 13  2  0  0  0  0
 12 15  1  0  0  0  0
 13 14  1  0  0  0  0
 13 47  1  0  0  0  0
 14 48  1  0  0  0  0
 15 16  1  0  0  0  0
 16 17  1  0  0  0  0
 16 49  1  0  0  0  0
 16 50  1  0  0  0  0
 17 18  1  0  0  0  0
 17 51  1  0  0  0  0
 17 52  1  0  0  0  0
 18 19  1  0  0  0  0
 19 24  2  0  0  0  0
 19 20  1  0  0  0  0
 20 21  2  0  0  0  0
 20 53  1  0  0  0  0
 21 22  1  0  0  0  0
 21 54  1  0  0  0  0
 22 23  2  0  0  0  0
 22 26  1  0  0  0  0
 23 24  1  0  0  0  0
 23 55  1  0  0  0  0
 24 25  1  0  0  0  0
 25 56  1  0  0  0  0
 25 57  1  0  0  0  0
 26 27  2  0  0  0  0
 26 58  1  0  0  0  0
M  CHG  1  58  -1
M  END
$$$$
ZINC01723396
  -OEChem-08230709463D

 55 58  0     0  0  0  0  0  0999 V2000
    3.5654   -1.2692   -0.6782 C   0  0  0  0  0  0  0  0  0  0  0  0
    4.3895   -0.4739   -1.4599 C   0  0  0  0  0  0  0  0  0  0  0  0
    4.4554    0.8865   -1.2474 C   0  0  0  0  0  0  0  0  0  0  0  0
    3.6851    1.4739   -0.2414 C   0  0  0  0  0  0  0  0  0  0  0  0
    2.8509    0.6641    0.5571 C   0  0  0  0  0  0  0  0  0  0  0  0
    2.8000   -0.7116    0.3234 C   0  0  0  0  0  0  0  0  0  0  0  0
    2.0350    1.2658    1.6256 C   0  0  0  0  0  0  0  0  0  0  0  0
    2.0829    2.4636    1.8251 O   0  0  0  0  0  0  0  0  0  0  0  0
    3.7426    2.8199   -0.0297 N   0  0  0  0  0  0  0  0  0  0  0  0
    4.9002    3.4187    0.0556 C   0  0  0  0  0  0  0  0  0  0  0  0
    4.9637    4.8818    0.1679 C   0  0  0  0  0  0  0  0  0  0  0  0
    3.7845    5.6372    0.1779 C   0  0  0  0  0  0  0  0  0  0  0  0
    3.8481    7.0021    0.2886 C   0  0  0  0  0  0  0  0  0  0  0  0
    5.0834    7.6385    0.3790 C   0  0  0  0  0  0  0  0  0  0  0  0
    6.2585    6.8917    0.3641 C   0  0  0  0  0  0  0  0  0  0  0  0
    6.2039    5.5259    0.2594 C   0  0  0  0  0  0  0  0  0  0  0  0
    5.1435    9.0242    0.4849 N   0  0  0  0  0  0  0  0  0  0  0  0
    5.9762    9.5977   -0.5799 C   0  0  0  0  0  0  0  0  0  0  0  0
    6.1388   11.1017   -0.3477 C   0  0  0  0  0  0  0  0  0  0  0  0
    4.7585   11.7635   -0.3397 C   0  0  0  0  0  0  0  0  0  0  0  0
    4.9100   13.2574   -0.0491 C   0  0  0  0  0  0  0  0  0  0  0  0
    5.7754   13.9025   -1.1336 C   0  0  0  0  0  0  0  0  0  0  0  0
    5.1097   13.7117   -2.4979 C   0  0  0  0  0  0  0  0  0  0  0  0
    4.9590   12.2170   -2.7880 C   0  0  0  0  0  0  0  0  0  0  0  0
    4.0932   11.5722   -1.7037 C   0  0  0  0  0  0  0  0  0  0  0  0
    3.8949   11.1156    0.7455 C   0  0  0  0  0  0  0  0  0  0  0  0
    3.7975    9.6111    0.4818 C   0  0  0  0  0  0  0  0  0  0  0  0
    3.5226   -2.3336   -0.8558 H   0  0  0  0  0  0  0  0  0  0  0  0
    4.9840   -0.9236   -2.2414 H   0  0  0  0  0  0  0  0  0  0  0  0
    5.0997    1.4984   -1.8612 H   0  0  0  0  0  0  0  0  0  0  0  0
    2.1607   -1.3386    0.9272 H   0  0  0  0  0  0  0  0  0  0  0  0
    5.8107    2.8380    0.0436 H   0  0  0  0  0  0  0  0  0  0  0  0
    2.8262    5.1448    0.1026 H   0  0  0  0  0  0  0  0  0  0  0  0
    2.9391    7.5851    0.3009 H   0  0  0  0  0  0  0  0  0  0  0  0
    7.2145    7.3893    0.4348 H   0  0  0  0  0  0  0  0  0  0  0  0
    7.1158    4.9475    0.2473 H   0  0  0  0  0  0  0  0  0  0  0  0
    6.9563    9.1208   -0.5712 H   0  0  0  0  0  0  0  0  0  0  0  0
    5.4988    9.4288   -1.5451 H   0  0  0  0  0  0  0  0  0  0  0  0
    6.7433   11.5302   -1.1472 H   0  0  0  0  0  0  0  0  0  0  0  0
    6.6296   11.2717    0.6106 H   0  0  0  0  0  0  0  0  0  0  0  0
    3.9266   13.7276   -0.0414 H   0  0  0  0  0  0  0  0  0  0  0  0
    5.3849   13.3923    0.9227 H   0  0  0  0  0  0  0  0  0  0  0  0
    6.7591   13.4331   -1.1405 H   0  0  0  0  0  0  0  0  0  0  0  0
    5.8824   14.9675   -0.9274 H   0  0  0  0  0  0  0  0  0  0  0  0
    5.7263   14.1713   -3.2704 H   0  0  0  0  0  0  0  0  0  0  0  0
    4.1261   14.1814   -2.4911 H   0  0  0  0  0  0  0  0  0  0  0  0
    5.9426   11.7472   -2.7947 H   0  0  0  0  0  0  0  0  0  0  0  0
    4.4849   12.0814   -3.7600 H   0  0  0  0  0  0  0  0  0  0  0  0
    3.9862   10.5072   -1.9096 H   0  0  0  0  0  0  0  0  0  0  0  0
    3.1095   12.0417   -1.6972 H   0  0  0  0  0  0  0  0  0  0  0  0
    2.8971   11.5538    0.7264 H   0  0  0  0  0  0  0  0  0  0  0  0
    4.3484   11.2854    1.7220 H   0  0  0  0  0  0  0  0  0  0  0  0
    3.3297    9.4419   -0.4880 H   0  0  0  0  0  0  0  0  0  0  0  0
    3.1959    9.1441    1.2617 H   0  0  0  0  0  0  0  0  0  0  0  0
    1.2354    0.4880    2.3820 O   0  5  0  0  0  0  0  0  0  0  0  0
  1  6  2  0  0  0  0
  1  2  1  0  0  0  0
  1 28  1  0  0  0  0
  2  3  2  0  0  0  0
  2 29  1  0  0  0  0
  3  4  1  0  0  0  0
  3 30  1  0  0  0  0
  4  5  2  0  0  0  0
  4  9  1  0  0  0  0
  5  6  1  0  0  0  0
  5  7  1  0  0  0  0
  6 31  1  0  0  0  0
  7  8  2  0  0  0  0
  7 55  1  0  0  0  0
  9 10  2  0  0  0  0
 10 11  1  0  0  0  0
 10 32  1  0  0  0  0
 11 16  2  0  0  0  0
 11 12  1  0  0  0  0
 12 13  2  0  0  0  0
 12 33  1  0  0  0  0
 13 14  1  0  0  0  0
 13 34  1  0  0  0  0
 14 15  2  0  0  0  0
 14 17  1  0  0  0  0
 15 16  1  0  0  0  0
 15 35  1  0  0  0  0
 16 36  1  0  0  0  0
 17 27  1  0  0  0  0
 17 18  1  0  0  0  0
 18 19  1  0  0  0  0
 18 37  1  0  0  0  0
 18 38  1  0  0  0  0
 19 20  1  0  0  0  0
 19 39  1  0  0  0  0
 19 40  1  0  0  0  0
 20 25  1  0  0  0  0
 20 21  1  0  0  0  0
 20 26  1  0  0  0  0
 21 22  1  0  0  0  0
 21 41  1  0  0  0  0
 21 42  1  0  0  0  0
 22 23  1  0  0  0  0
 22 43  1  0  0  0  0
 22 44  1  0  0  0  0
 23 24  1  0  0  0  0
 23 45  1  0  0  0  0
 23 46  1  0  0  0  0
 24 25  1  0  0  0  0
 24 47  1  0  0  0  0
 24 48  1  0  0  0  0
 25 49  1  0  0  0  0
 25 50  1  0  0  0  0
 26 27  1  0  0  0  0
 26 51  1  0  0  0  0
 26 52  1  0  0  0  0
 27 53  1  0  0  0  0
 27 54  1  0  0  0  0
M  CHG  1  55  -1
M  END
$$$$
ZINC01723398
  -OEChem-08230709463D

 56 59  0     0  0  0  0  0  0999 V2000
   -3.7009    3.3886   -0.0233 C   0  0  0  0  0  0  0  0  0  0  0  0
   -4.8983    4.0561   -0.0066 C   0  0  0  0  0  0  0  0  0  0  0  0
   -5.0841    5.1354    0.8533 C   0  0  0  0  0  0  0  0  0  0  0  0
   -4.0580    5.5372    1.7044 C   0  0  0  0  0  0  0  0  0  0  0  0
   -2.8594    4.8717    1.6983 C   0  0  0  0  0  0  0  0  0  0  0  0
   -2.6681    3.7861    0.8348 C   0  0  0  0  0  0  0  0  0  0  0  0
   -1.3855    3.0698    0.8248 C   0  0  0  0  0  0  0  0  0  0  0  0
   -1.2091    2.0579    0.0190 N   0  0  0  0  0  0  0  0  0  0  0  0
   -0.0169    1.3922    0.0097 C   0  0  0  0  0  0  0  0  0  0  0  0
    1.1854    2.1108    0.0021 C   0  0  0  0  0  0  0  0  0  0  0  0
    2.3794    1.4528   -0.0130 C   0  0  0  0  0  0  0  0  0  0  0  0
    2.4118    0.0532   -0.0208 C   0  0  0  0  0  0  0  0  0  0  0  0
    1.2110   -0.6751   -0.0132 C   0  0  0  0  0  0  0  0  0  0  0  0
    0.0021   -0.0041    0.0020 C   0  0  0  0  0  0  0  0  0  0  0  0
    1.2370   -2.0315   -0.0203 O   0  0  0  0  0  0  0  0  0  0  0  0
    3.7020   -0.6536   -0.0365 C   0  0  0  0  0  0  0  0  0  0  0  0
    3.7292   -1.8688   -0.0428 O   0  0  0  0  0  0  0  0  0  0  0  0
   -6.2985    5.8138    0.8625 N   0  0  0  0  0  0  0  0  0  0  0  0
   -6.1021    7.2477    0.6139 C   0  0  0  0  0  0  0  0  0  0  0  0
   -7.4353    7.9818    0.7755 C   0  0  0  0  0  0  0  0  0  0  0  0
   -8.4517    7.4065   -0.2142 C   0  0  0  0  0  0  0  0  0  0  0  0
   -9.8029    8.0955   -0.0171 C   0  0  0  0  0  0  0  0  0  0  0  0
   -9.6498    9.5979   -0.2632 C   0  0  0  0  0  0  0  0  0  0  0  0
   -9.1594    9.8331   -1.6932 C   0  0  0  0  0  0  0  0  0  0  0  0
   -7.8075    9.1440   -1.8893 C   0  0  0  0  0  0  0  0  0  0  0  0
   -7.9609    7.6416   -1.6438 C   0  0  0  0  0  0  0  0  0  0  0  0
   -8.6020    5.9036    0.0338 C   0  0  0  0  0  0  0  0  0  0  0  0
   -7.2350    5.2296   -0.1059 C   0  0  0  0  0  0  0  0  0  0  0  0
   -3.5558    2.5549   -0.6942 H   0  0  0  0  0  0  0  0  0  0  0  0
   -5.6969    3.7475   -0.6649 H   0  0  0  0  0  0  0  0  0  0  0  0
   -4.2063    6.3746    2.3701 H   0  0  0  0  0  0  0  0  0  0  0  0
   -2.0638    5.1844    2.3583 H   0  0  0  0  0  0  0  0  0  0  0  0
   -0.5884    3.3804    1.4841 H   0  0  0  0  0  0  0  0  0  0  0  0
    1.1665    3.1906    0.0081 H   0  0  0  0  0  0  0  0  0  0  0  0
    3.3028    2.0128   -0.0188 H   0  0  0  0  0  0  0  0  0  0  0  0
   -0.9249   -0.5582    0.0076 H   0  0  0  0  0  0  0  0  0  0  0  0
    1.2359   -2.4203   -0.9057 H   0  0  0  0  0  0  0  0  0  0  0  0
   -5.3802    7.6445    1.3277 H   0  0  0  0  0  0  0  0  0  0  0  0
   -5.7281    7.3928   -0.3996 H   0  0  0  0  0  0  0  0  0  0  0  0
   -7.2928    9.0436    0.5748 H   0  0  0  0  0  0  0  0  0  0  0  0
   -7.8032    7.8498    1.7930 H   0  0  0  0  0  0  0  0  0  0  0  0
  -10.5266    7.6839   -0.7207 H   0  0  0  0  0  0  0  0  0  0  0  0
  -10.1510    7.9278    1.0021 H   0  0  0  0  0  0  0  0  0  0  0  0
   -8.9269   10.0096    0.4411 H   0  0  0  0  0  0  0  0  0  0  0  0
  -10.6129   10.0889   -0.1240 H   0  0  0  0  0  0  0  0  0  0  0  0
   -9.0504   10.9034   -1.8685 H   0  0  0  0  0  0  0  0  0  0  0  0
   -9.8824    9.4216   -2.3975 H   0  0  0  0  0  0  0  0  0  0  0  0
   -7.0844    9.5554   -1.1850 H   0  0  0  0  0  0  0  0  0  0  0  0
   -7.4584    9.3119   -2.9082 H   0  0  0  0  0  0  0  0  0  0  0  0
   -6.9978    7.1505   -1.7827 H   0  0  0  0  0  0  0  0  0  0  0  0
   -8.6836    7.2301   -2.3484 H   0  0  0  0  0  0  0  0  0  0  0  0
   -9.2923    5.4814   -0.6965 H   0  0  0  0  0  0  0  0  0  0  0  0
   -8.9889    5.7368    1.0391 H   0  0  0  0  0  0  0  0  0  0  0  0
   -6.8558    5.3834   -1.1162 H   0  0  0  0  0  0  0  0  0  0  0  0
   -7.3358    4.1612    0.0854 H   0  0  0  0  0  0  0  0  0  0  0  0
    4.8540    0.0464   -0.0437 O   0  5  0  0  0  0  0  0  0  0  0  0
  1  6  2  0  0  0  0
  1  2  1  0  0  0  0
  1 29  1  0  0  0  0
  2  3  2  0  0  0  0
  2 30  1  0  0  0  0
  3  4  1  0  0  0  0
  3 18  1  0  0  0  0
  4  5  2  0  0  0  0
  4 31  1  0  0  0  0
  5  6  1  0  0  0  0
  5 32  1  0  0  0  0
  6  7  1  0  0  0  0
  7  8  2  0  0  0  0
  7 33  1  0  0  0  0
  8  9  1  0  0  0  0
  9 14  2  0  0  0  0
  9 10  1  0  0  0  0
 10 11  2  0  0  0  0
 10 34  1  0  0  0  0
 11 12  1  0  0  0  0
 11 35  1  0  0  0  0
 12 13  2  0  0  0  0
 12 16  1  0  0  0  0
 13 14  1  0  0  0  0
 13 15  1  0  0  0  0
 14 36  1  0  0  0  0
 15 37  1  0  0  0  0
 16 17  2  0  0  0  0
 16 56  1  0  0  0  0
 18 28  1  0  0  0  0
 18 19  1  0  0  0  0
 19 20  1  0  0  0  0
 19 38  1  0  0  0  0
 19 39  1  0  0  0  0
 20 21  1  0  0  0  0
 20 40  1  0  0  0  0
 20 41  1  0  0  0  0
 21 26  1  0  0  0  0
 21 22  1  0  0  0  0
 21 27  1  0  0  0  0
 22 23  1  0  0  0  0
 22 42  1  0  0  0  0
 22 43  1  0  0  0  0
 23 24  1  0  0  0  0
 23 44  1  0  0  0  0
 23 45  1  0  0  0  0
 24 25  1  0  0  0  0
 24 46  1  0  0  0  0
 24 47  1  0  0  0  0
 25 26  1  0  0  0  0
 25 48  1  0  0  0  0
 25 49  1  0  0  0  0
 26 50  1  0  0  0  0
 26 51  1  0  0  0  0
 27 28  1  0  0  0  0
 27 52  1  0  0  0  0
 27 53  1  0  0  0  0
 28 54  1  0  0  0  0
 28 55  1  0  0  0  0
M  CHG  1  56  -1
M  END
$$$$
ZINC01740482
  -OEChem-08230709463D

 53 55  0     1  0  0  0  0  0999 V2000
   -0.3303  -10.9687    6.4671 C   0  0  0  0  0  0  0  0  0  0  0  0
    0.2082   -9.6670    5.8699 C   0  0  0  0  0  0  0  0  0  0  0  0
   -0.9625   -8.7731    5.4561 C   0  0  0  0  0  0  0  0  0  0  0  0
   -0.4241   -7.4715    4.8589 C   0  0  0  0  0  0  0  0  0  0  0  0
   -1.5948   -6.5776    4.4450 C   0  0  0  0  0  0  0  0  0  0  0  0
   -1.0563   -5.2759    3.8478 C   0  0  0  0  0  0  0  0  0  0  0  0
   -2.2270   -4.3820    3.4340 C   0  0  1  0  0  0  0  0  0  0  0  0
   -2.8827   -4.9315    2.7586 H   0  0  0  0  0  0  0  0  0  0  0  0
   -3.0126   -3.9621    4.6780 C   0  0  0  0  0  0  0  0  0  0  0  0
   -1.7146   -3.1896    2.7545 N   0  0  0  0  0  0  0  0  0  0  0  0
   -2.0070   -2.8080    1.4613 C   0  0  0  0  0  0  0  0  0  0  0  0
   -1.3328   -1.6387    1.2353 C   0  0  0  0  0  0  0  0  0  0  0  0
   -0.6173   -1.3227    2.4092 C   0  0  0  0  0  0  0  0  0  0  0  0
   -0.8478   -2.2452    3.3040 N   0  0  0  0  0  0  0  0  0  0  0  0
    0.1815   -0.2356    2.5807 O   0  0  0  0  0  0  0  0  0  0  0  0
   -1.2926   -0.7753    0.0108 C   0  0  2  0  0  0  0  0  0  0  0  0
   -2.1218   -0.0689    0.0513 H   0  0  0  0  0  0  0  0  0  0  0  0
   -1.4141   -1.7209   -1.5116 S   0  0  0  0  0  0  0  0  0  0  0  0
   -3.0655   -2.4315   -1.5174 C   0  0  0  0  0  0  0  0  0  0  0  0
   -3.2505   -3.4807   -0.4931 C   0  0  0  0  0  0  0  0  0  0  0  0
   -2.8105   -3.5469    0.6777 N   0  0  0  0  0  0  0  0  0  0  0  0
   -4.0089   -4.5274   -0.8782 O   0  0  0  0  0  0  0  0  0  0  0  0
    0.0021   -0.0041    0.0020 C   0  0  0  0  0  0  0  0  0  0  0  0
   -0.0167    1.3781    0.0096 C   0  0  0  0  0  0  0  0  0  0  0  0
    1.1710    2.0855    0.0021 C   0  0  0  0  0  0  0  0  0  0  0  0
    2.3773    1.4107   -0.0145 C   0  0  0  0  0  0  0  0  0  0  0  0
    2.3960    0.0285   -0.0212 C   0  0  0  0  0  0  0  0  0  0  0  0
    1.2084   -0.6789   -0.0132 C   0  0  0  0  0  0  0  0  0  0  0  0
   -0.9411  -10.7421    7.3410 H   0  0  0  0  0  0  0  0  0  0  0  0
   -0.9372  -11.4857    5.7238 H   0  0  0  0  0  0  0  0  0  0  0  0
    0.5038  -11.6055    6.7619 H   0  0  0  0  0  0  0  0  0  0  0  0
    0.8190   -9.8936    4.9960 H   0  0  0  0  0  0  0  0  0  0  0  0
    0.8151   -9.1500    6.6132 H   0  0  0  0  0  0  0  0  0  0  0  0
   -1.5733   -8.5466    6.3300 H   0  0  0  0  0  0  0  0  0  0  0  0
   -1.5694   -9.2901    4.7128 H   0  0  0  0  0  0  0  0  0  0  0  0
    0.1867   -7.6980    3.9849 H   0  0  0  0  0  0  0  0  0  0  0  0
    0.1828   -6.9544    5.6021 H   0  0  0  0  0  0  0  0  0  0  0  0
   -2.2056   -6.3510    5.3190 H   0  0  0  0  0  0  0  0  0  0  0  0
   -2.2017   -7.0946    3.7018 H   0  0  0  0  0  0  0  0  0  0  0  0
   -0.4455   -5.5024    2.9739 H   0  0  0  0  0  0  0  0  0  0  0  0
   -0.4494   -4.7589    4.5911 H   0  0  0  0  0  0  0  0  0  0  0  0
   -2.3569   -3.4125    5.3534 H   0  0  0  0  0  0  0  0  0  0  0  0
   -3.8467   -3.3252    4.3831 H   0  0  0  0  0  0  0  0  0  0  0  0
   -3.3939   -4.8492    5.1835 H   0  0  0  0  0  0  0  0  0  0  0  0
   -0.2794    0.5403    2.9279 H   0  0  0  0  0  0  0  0  0  0  0  0
   -3.2578   -2.8631   -2.4996 H   0  0  0  0  0  0  0  0  0  0  0  0
   -3.7880   -1.6353   -1.3378 H   0  0  0  0  0  0  0  0  0  0  0  0
   -4.1482   -5.2309   -0.2295 H   0  0  0  0  0  0  0  0  0  0  0  0
   -0.9592    1.9054    0.0170 H   0  0  0  0  0  0  0  0  0  0  0  0
    1.1563    3.1654    0.0077 H   0  0  0  0  0  0  0  0  0  0  0  0
    3.3052    1.9634   -0.0201 H   0  0  0  0  0  0  0  0  0  0  0  0
    3.3386   -0.4987   -0.0324 H   0  0  0  0  0  0  0  0  0  0  0  0
    1.2231   -1.7588   -0.0184 H   0  0  0  0  0  0  0  0  0  0  0  0
  1  2  1  0  0  0  0
  1 29  1  0  0  0  0
  1 30  1  0  0  0  0
  1 31  1  0  0  0  0
  2  3  1  0  0  0  0
  2 32  1  0  0  0  0
  2 33  1  0  0  0  0
  3  4  1  0  0  0  0
  3 34  1  0  0  0  0
  3 35  1  0  0  0  0
  4  5  1  0  0  0  0
  4 36  1  0  0  0  0
  4 37  1  0  0  0  0
  5  6  1  0  0  0  0
  5 38  1  0  0  0  0
  5 39  1  0  0  0  0
  6  7  1  0  0  0  0
  6 40  1  0  0  0  0
  6 41  1  0  0  0  0
  7  8  1  0  0  0  0
  7  9  1  0  0  0  0
  7 10  1  0  0  0  0
  9 42  1  0  0  0  0
  9 43  1  0  0  0  0
  9 44  1  0  0  0  0
 10 14  1  0  0  0  0
 10 11  1  0  0  0  0
 11 21  1  0  0  0  0
 11 12  2  0  0  0  0
 12 13  1  0  0  0  0
 12 16  1  0  0  0  0
 13 14  2  0  0  0  0
 13 15  1  0  0  0  0
 15 45  1  0  0  0  0
 16 17  1  0  0  0  0
 16 18  1  0  0  0  0
 16 23  1  0  0  0  0
 18 19  1  0  0  0  0
 19 20  1  0  0  0  0
 19 46  1  0  0  0  0
 19 47  1  0  0  0  0
 20 21  2  0  0  0  0
 20 22  1  0  0  0  0
 22 48  1  0  0  0  0
 23 28  2  0  0  0  0
 23 24  1  0  0  0  0
 24 25  2  0  0  0  0
 24 49  1  0  0  0  0
 25 26  1  0  0  0  0
 25 50  1  0  0  0  0
 26 27  2  0  0  0  0
 26 51  1  0  0  0  0
 27 28  1  0  0  0  0
 27 52  1  0  0  0  0
 28 53  1  0  0  0  0
M  END
$$$$
ZINC01740484
  -OEChem-08230709463D

 53 55  0     1  0  0  0  0  0999 V2000
   -6.5019   -6.8238    9.0859 C   0  0  0  0  0  0  0  0  0  0  0  0
   -5.8626   -5.5899    8.4459 C   0  0  0  0  0  0  0  0  0  0  0  0
   -5.0770   -6.0099    7.2020 C   0  0  0  0  0  0  0  0  0  0  0  0
   -4.4376   -4.7760    6.5619 C   0  0  0  0  0  0  0  0  0  0  0  0
   -3.6520   -5.1959    5.3180 C   0  0  0  0  0  0  0  0  0  0  0  0
   -3.0126   -3.9621    4.6780 C   0  0  0  0  0  0  0  0  0  0  0  0
   -2.2270   -4.3820    3.4340 C   0  0  2  0  0  0  0  0  0  0  0  0
   -2.8827   -4.9315    2.7586 H   0  0  0  0  0  0  0  0  0  0  0  0
   -1.0563   -5.2759    3.8478 C   0  0  0  0  0  0  0  0  0  0  0  0
   -1.7146   -3.1896    2.7545 N   0  0  0  0  0  0  0  0  0  0  0  0
   -2.0070   -2.8080    1.4613 C   0  0  0  0  0  0  0  0  0  0  0  0
   -1.3328   -1.6387    1.2353 C   0  0  0  0  0  0  0  0  0  0  0  0
   -0.6173   -1.3227    2.4092 C   0  0  0  0  0  0  0  0  0  0  0  0
   -0.8478   -2.2452    3.3040 N   0  0  0  0  0  0  0  0  0  0  0  0
    0.1821   -0.2360    2.5805 O   0  0  0  0  0  0  0  0  0  0  0  0
   -1.2926   -0.7753    0.0108 C   0  0  2  0  0  0  0  0  0  0  0  0
   -2.1218   -0.0689    0.0513 H   0  0  0  0  0  0  0  0  0  0  0  0
   -1.4141   -1.7209   -1.5116 S   0  0  0  0  0  0  0  0  0  0  0  0
   -3.0659   -2.4313   -1.5172 C   0  0  0  0  0  0  0  0  0  0  0  0
   -3.2505   -3.4807   -0.4931 C   0  0  0  0  0  0  0  0  0  0  0  0
   -2.8105   -3.5469    0.6777 N   0  0  0  0  0  0  0  0  0  0  0  0
   -4.0085   -4.5276   -0.8784 O   0  0  0  0  0  0  0  0  0  0  0  0
    0.0021   -0.0041    0.0020 C   0  0  0  0  0  0  0  0  0  0  0  0
   -0.0167    1.3781    0.0096 C   0  0  0  0  0  0  0  0  0  0  0  0
    1.1710    2.0855    0.0021 C   0  0  0  0  0  0  0  0  0  0  0  0
    2.3773    1.4107   -0.0145 C   0  0  0  0  0  0  0  0  0  0  0  0
    2.3960    0.0285   -0.0212 C   0  0  0  0  0  0  0  0  0  0  0  0
    1.2084   -0.6789   -0.0132 C   0  0  0  0  0  0  0  0  0  0  0  0
   -7.1772   -7.2949    8.3717 H   0  0  0  0  0  0  0  0  0  0  0  0
   -5.7225   -7.5309    9.3700 H   0  0  0  0  0  0  0  0  0  0  0  0
   -7.0616   -6.5246    9.9721 H   0  0  0  0  0  0  0  0  0  0  0  0
   -5.1873   -5.1188    9.1602 H   0  0  0  0  0  0  0  0  0  0  0  0
   -6.6420   -4.8828    8.1619 H   0  0  0  0  0  0  0  0  0  0  0  0
   -5.7522   -6.4810    6.4877 H   0  0  0  0  0  0  0  0  0  0  0  0
   -4.2976   -6.7170    7.4860 H   0  0  0  0  0  0  0  0  0  0  0  0
   -3.7623   -4.3049    7.2762 H   0  0  0  0  0  0  0  0  0  0  0  0
   -5.2170   -4.0689    6.2779 H   0  0  0  0  0  0  0  0  0  0  0  0
   -4.3273   -5.6671    4.6037 H   0  0  0  0  0  0  0  0  0  0  0  0
   -2.8726   -5.9030    5.6020 H   0  0  0  0  0  0  0  0  0  0  0  0
   -2.3374   -3.4909    5.3922 H   0  0  0  0  0  0  0  0  0  0  0  0
   -3.7920   -3.2550    4.3939 H   0  0  0  0  0  0  0  0  0  0  0  0
   -1.4376   -6.1631    4.3534 H   0  0  0  0  0  0  0  0  0  0  0  0
   -0.4967   -5.5751    2.9616 H   0  0  0  0  0  0  0  0  0  0  0  0
   -0.4006   -4.7264    4.5233 H   0  0  0  0  0  0  0  0  0  0  0  0
   -0.2785    0.5403    2.9274 H   0  0  0  0  0  0  0  0  0  0  0  0
   -3.2583   -2.8627   -2.4995 H   0  0  0  0  0  0  0  0  0  0  0  0
   -3.7884   -1.6352   -1.3373 H   0  0  0  0  0  0  0  0  0  0  0  0
   -4.1475   -5.2313   -0.2298 H   0  0  0  0  0  0  0  0  0  0  0  0
   -0.9592    1.9054    0.0170 H   0  0  0  0  0  0  0  0  0  0  0  0
    1.1563    3.1654    0.0077 H   0  0  0  0  0  0  0  0  0  0  0  0
    3.3052    1.9634   -0.0201 H   0  0  0  0  0  0  0  0  0  0  0  0
    3.3386   -0.4987   -0.0324 H   0  0  0  0  0  0  0  0  0  0  0  0
    1.2231   -1.7588   -0.0184 H   0  0  0  0  0  0  0  0  0  0  0  0
  1  2  1  0  0  0  0
  1 29  1  0  0  0  0
  1 30  1  0  0  0  0
  1 31  1  0  0  0  0
  2  3  1  0  0  0  0
  2 32  1  0  0  0  0
  2 33  1  0  0  0  0
  3  4  1  0  0  0  0
  3 34  1  0  0  0  0
  3 35  1  0  0  0  0
  4  5  1  0  0  0  0
  4 36  1  0  0  0  0
  4 37  1  0  0  0  0
  5  6  1  0  0  0  0
  5 38  1  0  0  0  0
  5 39  1  0  0  0  0
  6  7  1  0  0  0  0
  6 40  1  0  0  0  0
  6 41  1  0  0  0  0
  7  8  1  0  0  0  0
  7  9  1  0  0  0  0
  7 10  1  0  0  0  0
  9 42  1  0  0  0  0
  9 43  1  0  0  0  0
  9 44  1  0  0  0  0
 10 14  1  0  0  0  0
 10 11  1  0  0  0  0
 11 21  1  0  0  0  0
 11 12  2  0  0  0  0
 12 13  1  0  0  0  0
 12 16  1  0  0  0  0
 13 14  2  0  0  0  0
 13 15  1  0  0  0  0
 15 45  1  0  0  0  0
 16 17  1  0  0  0  0
 16 18  1  0  0  0  0
 16 23  1  0  0  0  0
 18 19  1  0  0  0  0
 19 20  1  0  0  0  0
 19 46  1  0  0  0  0
 19 47  1  0  0  0  0
 20 21  2  0  0  0  0
 20 22  1  0  0  0  0
 22 48  1  0  0  0  0
 23 28  2  0  0  0  0
 23 24  1  0  0  0  0
 24 25  2  0  0  0  0
 24 49  1  0  0  0  0
 25 26  1  0  0  0  0
 25 50  1  0  0  0  0
 26 27  2  0  0  0  0
 26 51  1  0  0  0  0
 27 28  1  0  0  0  0
 27 52  1  0  0  0  0
 28 53  1  0  0  0  0
M  END
$$$$
ZINC01740489
  -OEChem-08230709463D

 53 55  0     1  0  0  0  0  0999 V2000
   -0.0366    1.0992   -2.4903 C   0  0  0  0  0  0  0  0  0  0  0  0
   -0.7527    1.5927   -1.2315 C   0  0  0  0  0  0  0  0  0  0  0  0
   -0.0127    1.0858    0.0080 C   0  0  0  0  0  0  0  0  0  0  0  0
   -0.7288    1.5792    1.2668 C   0  0  0  0  0  0  0  0  0  0  0  0
    0.0111    1.0724    2.5063 C   0  0  0  0  0  0  0  0  0  0  0  0
   -0.7050    1.5658    3.7651 C   0  0  0  0  0  0  0  0  0  0  0  0
    0.0350    1.0590    5.0047 C   0  0  1  0  0  0  0  0  0  0  0  0
    0.1275   -0.0259    4.9543 H   0  0  0  0  0  0  0  0  0  0  0  0
    1.4288    1.6877    5.0592 C   0  0  0  0  0  0  0  0  0  0  0  0
   -0.7154    1.4298    6.2070 N   0  0  0  0  0  0  0  0  0  0  0  0
   -1.2358    0.5537    7.1371 C   0  0  0  0  0  0  0  0  0  0  0  0
   -1.8593    1.3152    8.0878 C   0  0  0  0  0  0  0  0  0  0  0  0
   -1.7097    2.6685    7.7188 C   0  0  0  0  0  0  0  0  0  0  0  0
   -1.0313    2.7287    6.6047 N   0  0  0  0  0  0  0  0  0  0  0  0
   -2.1928    3.7354    8.4099 O   0  0  0  0  0  0  0  0  0  0  0  0
   -2.6031    0.8945    9.3193 C   0  0  1  0  0  0  0  0  0  0  0  0
   -3.6435    0.7058    9.0545 H   0  0  0  0  0  0  0  0  0  0  0  0
   -1.9329   -0.5909   10.0657 S   0  0  0  0  0  0  0  0  0  0  0  0
   -2.2273   -1.9149    8.8853 C   0  0  0  0  0  0  0  0  0  0  0  0
   -1.4085   -1.7944    7.6610 C   0  0  0  0  0  0  0  0  0  0  0  0
   -1.0740   -0.7747    7.0152 N   0  0  0  0  0  0  0  0  0  0  0  0
   -0.9510   -2.9613    7.1629 O   0  0  0  0  0  0  0  0  0  0  0  0
   -2.5559    2.0174   10.3232 C   0  0  0  0  0  0  0  0  0  0  0  0
   -1.3390    2.4679   10.7997 C   0  0  0  0  0  0  0  0  0  0  0  0
   -1.2955    3.5009   11.7172 C   0  0  0  0  0  0  0  0  0  0  0  0
   -2.4694    4.0769   12.1656 C   0  0  0  0  0  0  0  0  0  0  0  0
   -3.6866    3.6232   11.6928 C   0  0  0  0  0  0  0  0  0  0  0  0
   -3.7298    2.5932   10.7719 C   0  0  0  0  0  0  0  0  0  0  0  0
   -0.0218    0.0093   -2.4963 H   0  0  0  0  0  0  0  0  0  0  0  0
   -0.5637    1.4603   -3.3734 H   0  0  0  0  0  0  0  0  0  0  0  0
    0.9860    1.4765   -2.4981 H   0  0  0  0  0  0  0  0  0  0  0  0
   -1.7753    1.2154   -1.2238 H   0  0  0  0  0  0  0  0  0  0  0  0
   -0.7675    2.6825   -1.2255 H   0  0  0  0  0  0  0  0  0  0  0  0
    0.0021   -0.0041    0.0020 H   0  0  0  0  0  0  0  0  0  0  0  0
    1.0099    1.4631    0.0003 H   0  0  0  0  0  0  0  0  0  0  0  0
   -0.7436    2.6691    1.2728 H   0  0  0  0  0  0  0  0  0  0  0  0
   -1.7514    1.2020    1.2746 H   0  0  0  0  0  0  0  0  0  0  0  0
    0.0259   -0.0175    2.5003 H   0  0  0  0  0  0  0  0  0  0  0  0
    1.0337    1.4497    2.4986 H   0  0  0  0  0  0  0  0  0  0  0  0
   -0.7198    2.6557    3.7711 H   0  0  0  0  0  0  0  0  0  0  0  0
   -1.7276    1.1885    3.7729 H   0  0  0  0  0  0  0  0  0  0  0  0
    1.9560    1.3266    5.9422 H   0  0  0  0  0  0  0  0  0  0  0  0
    1.9871    1.4118    4.1646 H   0  0  0  0  0  0  0  0  0  0  0  0
    1.3363    2.7726    5.1096 H   0  0  0  0  0  0  0  0  0  0  0  0
   -3.0850    4.0018    8.1489 H   0  0  0  0  0  0  0  0  0  0  0  0
   -3.2805   -1.9062    8.6046 H   0  0  0  0  0  0  0  0  0  0  0  0
   -2.0012   -2.8668    9.3656 H   0  0  0  0  0  0  0  0  0  0  0  0
   -0.4115   -2.9152    6.3617 H   0  0  0  0  0  0  0  0  0  0  0  0
   -0.4220    2.0151   10.4525 H   0  0  0  0  0  0  0  0  0  0  0  0
   -0.3446    3.8556   12.0864 H   0  0  0  0  0  0  0  0  0  0  0  0
   -2.4356    4.8817   12.8850 H   0  0  0  0  0  0  0  0  0  0  0  0
   -4.6037    4.0733   12.0431 H   0  0  0  0  0  0  0  0  0  0  0  0
   -4.6808    2.2384   10.4028 H   0  0  0  0  0  0  0  0  0  0  0  0
  1  2  1  0  0  0  0
  1 29  1  0  0  0  0
  1 30  1  0  0  0  0
  1 31  1  0  0  0  0
  2  3  1  0  0  0  0
  2 32  1  0  0  0  0
  2 33  1  0  0  0  0
  3  4  1  0  0  0  0
  3 34  1  0  0  0  0
  3 35  1  0  0  0  0
  4  5  1  0  0  0  0
  4 36  1  0  0  0  0
  4 37  1  0  0  0  0
  5  6  1  0  0  0  0
  5 38  1  0  0  0  0
  5 39  1  0  0  0  0
  6  7  1  0  0  0  0
  6 40  1  0  0  0  0
  6 41  1  0  0  0  0
  7  8  1  0  0  0  0
  7  9  1  0  0  0  0
  7 10  1  0  0  0  0
  9 42  1  0  0  0  0
  9 43  1  0  0  0  0
  9 44  1  0  0  0  0
 10 14  1  0  0  0  0
 10 11  1  0  0  0  0
 11 21  1  0  0  0  0
 11 12  2  0  0  0  0
 12 13  1  0  0  0  0
 12 16  1  0  0  0  0
 13 14  2  0  0  0  0
 13 15  1  0  0  0  0
 15 45  1  0  0  0  0
 16 17  1  0  0  0  0
 16 18  1  0  0  0  0
 16 23  1  0  0  0  0
 18 19  1  0  0  0  0
 19 20  1  0  0  0  0
 19 46  1  0  0  0  0
 19 47  1  0  0  0  0
 20 21  2  0  0  0  0
 20 22  1  0  0  0  0
 22 48  1  0  0  0  0
 23 28  2  0  0  0  0
 23 24  1  0  0  0  0
 24 25  2  0  0  0  0
 24 49  1  0  0  0  0
 25 26  1  0  0  0  0
 25 50  1  0  0  0  0
 26 27  2  0  0  0  0
 26 51  1  0  0  0  0
 27 28  1  0  0  0  0
 27 52  1  0  0  0  0
 28 53  1  0  0  0  0
M  END
$$$$
ZINC01792123
  -OEChem-08230709463D

 52 54  0     1  0  0  0  0  0999 V2000
   -2.5146    0.9650    0.0906 C   0  0  0  0  0  0  0  0  0  0  0  0
   -1.2258    1.7458    0.0715 C   0  0  0  0  0  0  0  0  0  0  0  0
   -0.0125    1.0757    0.0630 C   0  0  0  0  0  0  0  0  0  0  0  0
    1.1765    1.7750    0.0392 C   0  0  0  0  0  0  0  0  0  0  0  0
    1.1637    3.1636    0.0294 C   0  0  0  0  0  0  0  0  0  0  0  0
   -0.0642    3.8393    0.0438 C   0  0  0  0  0  0  0  0  0  0  0  0
   -1.2577    3.1248    0.0673 C   0  0  0  0  0  0  0  0  0  0  0  0
   -0.0536    5.3207    0.0325 C   0  0  0  0  0  0  0  0  0  0  0  0
   -1.1708    6.0133    0.0451 N   0  0  0  0  0  0  0  0  0  0  0  0
   -1.1265    7.4729    0.1626 C   0  0  1  0  0  0  0  0  0  0  0  0
   -0.0897    7.8081    0.1370 H   0  0  0  0  0  0  0  0  0  0  0  0
   -1.8948    8.1018   -1.0015 C   0  0  0  0  0  0  0  0  0  0  0  0
   -3.3755    7.7319   -0.8943 C   0  0  0  0  0  0  0  0  0  0  0  0
   -1.7442    9.6235   -0.9490 C   0  0  0  0  0  0  0  0  0  0  0  0
   -1.7577    7.8913    1.4655 C   0  0  0  0  0  0  0  0  0  0  0  0
   -2.1992    7.0560    2.2187 O   0  0  0  0  0  0  0  0  0  0  0  0
    1.2172    5.9634    0.0074 C   0  0  0  0  0  0  0  0  0  0  0  0
    2.3438    5.2102   -0.0049 C   0  0  0  0  0  0  0  0  0  0  0  0
    2.3171    3.8661    0.0058 O   0  0  0  0  0  0  0  0  0  0  0  0
    3.6521    5.8927   -0.0315 C   0  0  0  0  0  0  0  0  0  0  0  0
    3.7139    7.2885   -0.0488 C   0  0  0  0  0  0  0  0  0  0  0  0
    4.9372    7.9216   -0.0683 C   0  0  0  0  0  0  0  0  0  0  0  0
    6.1084    7.1741   -0.0813 C   0  0  0  0  0  0  0  0  0  0  0  0
    6.0514    5.7858   -0.0698 C   0  0  0  0  0  0  0  0  0  0  0  0
    4.8323    5.1448   -0.0451 C   0  0  0  0  0  0  0  0  0  0  0  0
    7.3121    7.8020   -0.1057 O   0  0  0  0  0  0  0  0  0  0  0  0
    7.2983    9.2309   -0.1162 C   0  0  0  0  0  0  0  0  0  0  0  0
    2.4879    1.0327    0.0245 C   0  0  0  0  0  0  0  0  0  0  0  0
   -2.8143    0.7837    1.1228 H   0  0  0  0  0  0  0  0  0  0  0  0
   -3.2920    1.5344   -0.4188 H   0  0  0  0  0  0  0  0  0  0  0  0
   -2.3698    0.0120   -0.4183 H   0  0  0  0  0  0  0  0  0  0  0  0
    0.0022   -0.0042    0.0705 H   0  0  0  0  0  0  0  0  0  0  0  0
   -2.2032    3.6466    0.0784 H   0  0  0  0  0  0  0  0  0  0  0  0
   -1.4946    7.7293   -1.9444 H   0  0  0  0  0  0  0  0  0  0  0  0
   -3.7758    8.1043    0.0486 H   0  0  0  0  0  0  0  0  0  0  0  0
   -3.9229    8.1799   -1.7236 H   0  0  0  0  0  0  0  0  0  0  0  0
   -3.4828    6.6478   -0.9317 H   0  0  0  0  0  0  0  0  0  0  0  0
   -0.6893    9.8870   -1.0254 H   0  0  0  0  0  0  0  0  0  0  0  0
   -2.2916   10.0715   -1.7783 H   0  0  0  0  0  0  0  0  0  0  0  0
   -2.1445    9.9959   -0.0061 H   0  0  0  0  0  0  0  0  0  0  0  0
    1.2824    7.0414   -0.0022 H   0  0  0  0  0  0  0  0  0  0  0  0
    2.8040    7.8702   -0.0429 H   0  0  0  0  0  0  0  0  0  0  0  0
    4.9860    9.0004   -0.0776 H   0  0  0  0  0  0  0  0  0  0  0  0
    6.9641    5.2085   -0.0807 H   0  0  0  0  0  0  0  0  0  0  0  0
    4.7888    4.0657   -0.0359 H   0  0  0  0  0  0  0  0  0  0  0  0
    8.3223    9.6040   -0.1358 H   0  0  0  0  0  0  0  0  0  0  0  0
    6.7665    9.5826   -1.0003 H   0  0  0  0  0  0  0  0  0  0  0  0
    6.7956    9.5960    0.7793 H   0  0  0  0  0  0  0  0  0  0  0  0
    2.7882    0.8460   -1.0066 H   0  0  0  0  0  0  0  0  0  0  0  0
    3.2503    1.6321    0.5221 H   0  0  0  0  0  0  0  0  0  0  0  0
    2.3738    0.0831    0.5474 H   0  0  0  0  0  0  0  0  0  0  0  0
   -1.8293    9.1920    1.7893 O   0  5  0  0  0  0  0  0  0  0  0  0
  1  2  1  0  0  0  0
  1 29  1  0  0  0  0
  1 30  1  0  0  0  0
  1 31  1  0  0  0  0
  2  7  2  0  0  0  0
  2  3  1  0  0  0  0
  3  4  2  0  0  0  0
  3 32  1  0  0  0  0
  4  5  1  0  0  0  0
  4 28  1  0  0  0  0
  5 19  1  0  0  0  0
  5  6  2  0  0  0  0
  6  7  1  0  0  0  0
  6  8  1  0  0  0  0
  7 33  1  0  0  0  0
  8  9  2  0  0  0  0
  8 17  1  0  0  0  0
  9 10  1  0  0  0  0
 10 11  1  0  0  0  0
 10 12  1  0  0  0  0
 10 15  1  0  0  0  0
 12 13  1  0  0  0  0
 12 14  1  0  0  0  0
 12 34  1  0  0  0  0
 13 35  1  0  0  0  0
 13 36  1  0  0  0  0
 13 37  1  0  0  0  0
 14 38  1  0  0  0  0
 14 39  1  0  0  0  0
 14 40  1  0  0  0  0
 15 16  2  0  0  0  0
 15 52  1  0  0  0  0
 17 18  2  0  0  0  0
 17 41  1  0  0  0  0
 18 19  1  0  0  0  0
 18 20  1  0  0  0  0
 20 25  2  0  0  0  0
 20 21  1  0  0  0  0
 21 22  2  0  0  0  0
 21 42  1  0  0  0  0
 22 23  1  0  0  0  0
 22 43  1  0  0  0  0
 23 24  2  0  0  0  0
 23 26  1  0  0  0  0
 24 25  1  0  0  0  0
 24 44  1  0  0  0  0
 25 45  1  0  0  0  0
 26 27  1  0  0  0  0
 27 46  1  0  0  0  0
 27 47  1  0  0  0  0
 27 48  1  0  0  0  0
 28 49  1  0  0  0  0
 28 50  1  0  0  0  0
 28 51  1  0  0  0  0
M  CHG  1  52  -1
M  END
$$$$
ZINC01792126
  -OEChem-08230709463D

 49 51  0     0  0  0  0  0  0999 V2000
    4.6304   -6.6564   -8.7079 C   0  0  0  0  0  0  0  0  0  0  0  0
    4.2262   -5.8815   -7.4802 C   0  0  0  0  0  0  0  0  0  0  0  0
    4.2352   -4.5019   -7.5041 C   0  0  0  0  0  0  0  0  0  0  0  0
    3.8615   -3.7931   -6.3674 C   0  0  0  0  0  0  0  0  0  0  0  0
    3.8570   -2.3117   -6.3504 C   0  0  0  0  0  0  0  0  0  0  0  0
    4.2060   -1.6139   -7.4084 N   0  0  0  0  0  0  0  0  0  0  0  0
    4.0617   -0.1561   -7.4047 C   0  0  0  0  0  0  0  0  0  0  0  0
    5.4451    0.4935   -7.4772 C   0  0  0  0  0  0  0  0  0  0  0  0
    5.2944    2.0161   -7.4733 C   0  0  0  0  0  0  0  0  0  0  0  0
    6.6570    2.6559   -7.5447 C   0  0  0  0  0  0  0  0  0  0  0  0
    7.6470    1.9650   -7.5937 O   0  0  0  0  0  0  0  0  0  0  0  0
    3.4528   -1.6748   -5.1423 C   0  0  0  0  0  0  0  0  0  0  0  0
    3.1062   -2.4330   -4.0738 C   0  0  0  0  0  0  0  0  0  0  0  0
    3.1160   -3.7771   -4.1050 O   0  0  0  0  0  0  0  0  0  0  0  0
    3.4777   -4.4745   -5.2039 C   0  0  0  0  0  0  0  0  0  0  0  0
    3.4746   -5.8627   -5.1981 C   0  0  0  0  0  0  0  0  0  0  0  0
    3.8472   -6.5568   -6.3312 C   0  0  0  0  0  0  0  0  0  0  0  0
    3.8414   -8.0638   -6.3189 C   0  0  0  0  0  0  0  0  0  0  0  0
    2.6960   -1.7564   -2.8281 C   0  0  0  0  0  0  0  0  0  0  0  0
    2.3273   -2.5095   -1.7103 C   0  0  0  0  0  0  0  0  0  0  0  0
    1.9454   -1.8738   -0.5494 C   0  0  0  0  0  0  0  0  0  0  0  0
    1.9265   -0.4858   -0.4889 C   0  0  0  0  0  0  0  0  0  0  0  0
    2.2869    0.2669   -1.5998 C   0  0  0  0  0  0  0  0  0  0  0  0
    2.6755   -0.3607   -2.7629 C   0  0  0  0  0  0  0  0  0  0  0  0
    1.5495    0.1368    0.6574 O   0  0  0  0  0  0  0  0  0  0  0  0
    1.5527    1.5658    0.6508 C   0  0  0  0  0  0  0  0  0  0  0  0
    3.7519   -6.8428   -9.3255 H   0  0  0  0  0  0  0  0  0  0  0  0
    5.3595   -6.0802   -9.2776 H   0  0  0  0  0  0  0  0  0  0  0  0
    5.0723   -7.6068   -8.4085 H   0  0  0  0  0  0  0  0  0  0  0  0
    4.5310   -3.9758   -8.3997 H   0  0  0  0  0  0  0  0  0  0  0  0
    3.4698    0.1527   -8.2663 H   0  0  0  0  0  0  0  0  0  0  0  0
    3.5609    0.1571   -6.4887 H   0  0  0  0  0  0  0  0  0  0  0  0
    6.0371    0.1848   -6.6156 H   0  0  0  0  0  0  0  0  0  0  0  0
    5.9460    0.1803   -8.3932 H   0  0  0  0  0  0  0  0  0  0  0  0
    4.7025    2.3248   -8.3349 H   0  0  0  0  0  0  0  0  0  0  0  0
    4.7936    2.3293   -6.5573 H   0  0  0  0  0  0  0  0  0  0  0  0
    3.4268   -0.5971   -5.0769 H   0  0  0  0  0  0  0  0  0  0  0  0
    3.1806   -6.3989   -4.3080 H   0  0  0  0  0  0  0  0  0  0  0  0
    2.8639   -8.4259   -6.6376 H   0  0  0  0  0  0  0  0  0  0  0  0
    4.6065   -8.4356   -7.0004 H   0  0  0  0  0  0  0  0  0  0  0  0
    4.0494   -8.4197   -5.3099 H   0  0  0  0  0  0  0  0  0  0  0  0
    2.3414   -3.5884   -1.7566 H   0  0  0  0  0  0  0  0  0  0  0  0
    1.6600   -2.4552    0.3149 H   0  0  0  0  0  0  0  0  0  0  0  0
    2.2666    1.3456   -1.5500 H   0  0  0  0  0  0  0  0  0  0  0  0
    2.9594    0.2251   -3.6247 H   0  0  0  0  0  0  0  0  0  0  0  0
    2.5595    1.9259    0.4394 H   0  0  0  0  0  0  0  0  0  0  0  0
    0.8689    1.9271   -0.1173 H   0  0  0  0  0  0  0  0  0  0  0  0
    1.2320    1.9343    1.6252 H   0  0  0  0  0  0  0  0  0  0  0  0
    6.7708    3.9933   -7.5539 O   0  5  0  0  0  0  0  0  0  0  0  0
  1  2  1  0  0  0  0
  1 27  1  0  0  0  0
  1 28  1  0  0  0  0
  1 29  1  0  0  0  0
  2 17  2  0  0  0  0
  2  3  1  0  0  0  0
  3  4  2  0  0  0  0
  3 30  1  0  0  0  0
  4 15  1  0  0  0  0
  4  5  1  0  0  0  0
  5  6  2  0  0  0  0
  5 12  1  0  0  0  0
  6  7  1  0  0  0  0
  7  8  1  0  0  0  0
  7 31  1  0  0  0  0
  7 32  1  0  0  0  0
  8  9  1  0  0  0  0
  8 33  1  0  0  0  0
  8 34  1  0  0  0  0
  9 10  1  0  0  0  0
  9 35  1  0  0  0  0
  9 36  1  0  0  0  0
 10 11  2  0  0  0  0
 10 49  1  0  0  0  0
 12 13  2  0  0  0  0
 12 37  1  0  0  0  0
 13 14  1  0  0  0  0
 13 19  1  0  0  0  0
 14 15  1  0  0  0  0
 15 16  2  0  0  0  0
 16 17  1  0  0  0  0
 16 38  1  0  0  0  0
 17 18  1  0  0  0  0
 18 39  1  0  0  0  0
 18 40  1  0  0  0  0
 18 41  1  0  0  0  0
 19 24  2  0  0  0  0
 19 20  1  0  0  0  0
 20 21  2  0  0  0  0
 20 42  1  0  0  0  0
 21 22  1  0  0  0  0
 21 43  1  0  0  0  0
 22 23  2  0  0  0  0
 22 25  1  0  0  0  0
 23 24  1  0  0  0  0
 23 44  1  0  0  0  0
 24 45  1  0  0  0  0
 25 26  1  0  0  0  0
 26 46  1  0  0  0  0
 26 47  1  0  0  0  0
 26 48  1  0  0  0  0
M  CHG  1  49  -1
M  END
$$$$
ZINC01792421
  -OEChem-08230709463D

 56 58  0     1  0  0  0  0  0999 V2000
   -1.4433  -11.2288   -0.4086 C   0  0  0  0  0  0  0  0  0  0  0  0
   -1.3072  -10.4621    0.9084 C   0  0  0  0  0  0  0  0  0  0  0  0
   -1.2484   -8.9832    0.6250 C   0  0  0  0  0  0  0  0  0  0  0  0
   -2.4184   -8.2413    0.5814 C   0  0  0  0  0  0  0  0  0  0  0  0
   -2.3827   -6.8867    0.3223 C   0  0  0  0  0  0  0  0  0  0  0  0
   -1.1655   -6.2552    0.1028 C   0  0  0  0  0  0  0  0  0  0  0  0
    0.0165   -7.0070    0.1477 C   0  0  0  0  0  0  0  0  0  0  0  0
   -0.0304   -8.3724    0.4102 C   0  0  0  0  0  0  0  0  0  0  0  0
    1.3031   -6.3121   -0.0895 C   0  0  0  0  0  0  0  0  0  0  0  0
    2.4465   -6.9602   -0.0615 N   0  0  0  0  0  0  0  0  0  0  0  0
    3.7082   -6.2252   -0.1798 C   0  0  2  0  0  0  0  0  0  0  0  0
    3.5085   -5.1539   -0.1542 H   0  0  0  0  0  0  0  0  0  0  0  0
    4.3866   -6.5860   -1.5028 C   0  0  0  0  0  0  0  0  0  0  0  0
    3.4668   -6.2109   -2.6665 C   0  0  0  0  0  0  0  0  0  0  0  0
    5.7043   -5.8184   -1.6264 C   0  0  0  0  0  0  0  0  0  0  0  0
    4.6142   -6.5947    0.9664 C   0  0  0  0  0  0  0  0  0  0  0  0
    4.2439   -7.3903    1.7969 O   0  0  0  0  0  0  0  0  0  0  0  0
    1.2500   -4.9127   -0.3497 C   0  0  0  0  0  0  0  0  0  0  0  0
    0.0493   -4.2845   -0.3697 C   0  0  0  0  0  0  0  0  0  0  0  0
   -1.1094   -4.9289   -0.1470 O   0  0  0  0  0  0  0  0  0  0  0  0
    0.0128   -2.8343   -0.6408 C   0  0  0  0  0  0  0  0  0  0  0  0
    1.2002   -2.1350   -0.8711 C   0  0  0  0  0  0  0  0  0  0  0  0
    1.1637   -0.7817   -1.1306 C   0  0  0  0  0  0  0  0  0  0  0  0
   -0.0498   -0.1085   -1.1523 C   0  0  0  0  0  0  0  0  0  0  0  0
   -1.2380   -0.7997   -0.9230 C   0  0  0  0  0  0  0  0  0  0  0  0
   -1.2093   -2.1576   -0.6682 C   0  0  0  0  0  0  0  0  0  0  0  0
   -2.4258   -0.1380   -0.9504 O   0  0  0  0  0  0  0  0  0  0  0  0
   -3.6039   -0.9092   -0.7068 C   0  0  0  0  0  0  0  0  0  0  0  0
   -0.0799    1.2266   -1.4031 O   0  0  0  0  0  0  0  0  0  0  0  0
    1.1745    1.8726   -1.6292 C   0  0  0  0  0  0  0  0  0  0  0  0
   -2.3569  -10.9196   -0.9163 H   0  0  0  0  0  0  0  0  0  0  0  0
   -0.5841  -11.0146   -1.0442 H   0  0  0  0  0  0  0  0  0  0  0  0
   -1.4858  -12.2985   -0.2035 H   0  0  0  0  0  0  0  0  0  0  0  0
   -0.3936  -10.7713    1.4162 H   0  0  0  0  0  0  0  0  0  0  0  0
   -2.1664  -10.6763    1.5440 H   0  0  0  0  0  0  0  0  0  0  0  0
   -3.3672   -8.7284    0.7515 H   0  0  0  0  0  0  0  0  0  0  0  0
   -3.3002   -6.3180    0.2906 H   0  0  0  0  0  0  0  0  0  0  0  0
    0.8811   -8.9507    0.4450 H   0  0  0  0  0  0  0  0  0  0  0  0
    4.5863   -7.6573   -1.5284 H   0  0  0  0  0  0  0  0  0  0  0  0
    3.2670   -5.1397   -2.6410 H   0  0  0  0  0  0  0  0  0  0  0  0
    3.9500   -6.4680   -3.6091 H   0  0  0  0  0  0  0  0  0  0  0  0
    2.5280   -6.7578   -2.5785 H   0  0  0  0  0  0  0  0  0  0  0  0
    6.3596   -6.0857   -0.7974 H   0  0  0  0  0  0  0  0  0  0  0  0
    6.1875   -6.0755   -2.5690 H   0  0  0  0  0  0  0  0  0  0  0  0
    5.5045   -4.7472   -1.6009 H   0  0  0  0  0  0  0  0  0  0  0  0
    2.1586   -4.3571   -0.5290 H   0  0  0  0  0  0  0  0  0  0  0  0
    2.1462   -2.6556   -0.8504 H   0  0  0  0  0  0  0  0  0  0  0  0
    2.0818   -0.2431   -1.3132 H   0  0  0  0  0  0  0  0  0  0  0  0
   -2.1294   -2.6946   -0.4911 H   0  0  0  0  0  0  0  0  0  0  0  0
   -3.6875   -1.6926   -1.4601 H   0  0  0  0  0  0  0  0  0  0  0  0
   -3.5436   -1.3619    0.2829 H   0  0  0  0  0  0  0  0  0  0  0  0
   -4.4791   -0.2615   -0.7574 H   0  0  0  0  0  0  0  0  0  0  0  0
    1.8080    1.7539   -0.7502 H   0  0  0  0  0  0  0  0  0  0  0  0
    1.6641    1.4233   -2.4932 H   0  0  0  0  0  0  0  0  0  0  0  0
    1.0083    2.9334   -1.8167 H   0  0  0  0  0  0  0  0  0  0  0  0
    5.8325   -6.0399    1.0647 O   0  5  0  0  0  0  0  0  0  0  0  0
  1  2  1  0  0  0  0
  1 31  1  0  0  0  0
  1 32  1  0  0  0  0
  1 33  1  0  0  0  0
  2  3  1  0  0  0  0
  2 34  1  0  0  0  0
  2 35  1  0  0  0  0
  3  8  2  0  0  0  0
  3  4  1  0  0  0  0
  4  5  2  0  0  0  0
  4 36  1  0  0  0  0
  5  6  1  0  0  0  0
  5 37  1  0  0  0  0
  6 20  1  0  0  0  0
  6  7  2  0  0  0  0
  7  8  1  0  0  0  0
  7  9  1  0  0  0  0
  8 38  1  0  0  0  0
  9 10  2  0  0  0  0
  9 18  1  0  0  0  0
 10 11  1  0  0  0  0
 11 12  1  0  0  0  0
 11 13  1  0  0  0  0
 11 16  1  0  0  0  0
 13 14  1  0  0  0  0
 13 15  1  0  0  0  0
 13 39  1  0  0  0  0
 14 40  1  0  0  0  0
 14 41  1  0  0  0  0
 14 42  1  0  0  0  0
 15 43  1  0  0  0  0
 15 44  1  0  0  0  0
 15 45  1  0  0  0  0
 16 17  2  0  0  0  0
 16 56  1  0  0  0  0
 18 19  2  0  0  0  0
 18 46  1  0  0  0  0
 19 20  1  0  0  0  0
 19 21  1  0  0  0  0
 21 26  2  0  0  0  0
 21 22  1  0  0  0  0
 22 23  2  0  0  0  0
 22 47  1  0  0  0  0
 23 24  1  0  0  0  0
 23 48  1  0  0  0  0
 24 25  2  0  0  0  0
 24 29  1  0  0  0  0
 25 26  1  0  0  0  0
 25 27  1  0  0  0  0
 26 49  1  0  0  0  0
 27 28  1  0  0  0  0
 28 50  1  0  0  0  0
 28 51  1  0  0  0  0
 28 52  1  0  0  0  0
 29 30  1  0  0  0  0
 30 53  1  0  0  0  0
 30 54  1  0  0  0  0
 30 55  1  0  0  0  0
M  CHG  1  56  -1
M  END
$$$$
ZINC01842927
  -OEChem-08230709463D

 54 56  0     1  0  0  0  0  0999 V2000
   -1.5932    5.1312    2.4758 C   0  0  0  0  0  0  0  0  0  0  0  0
   -1.5725    3.6014    2.4674 C   0  0  0  0  0  0  0  0  0  0  0  0
   -0.7496    3.1091    1.2752 C   0  0  0  0  0  0  0  0  0  0  0  0
   -0.7288    1.5792    1.2668 C   0  0  1  0  0  0  0  0  0  0  0  0
   -1.7514    1.2020    1.2746 H   0  0  0  0  0  0  0  0  0  0  0  0
   -0.0127    1.0858    0.0080 C   0  0  0  0  0  0  0  0  0  0  0  0
   -0.0203    1.0939    2.4537 N   0  0  3  0  0  0  0  0  0  0  0  0
   -0.5575    0.2766    3.4463 C   0  0  0  0  0  0  0  0  0  0  0  0
    0.4310    0.0638    4.3724 C   0  0  0  0  0  0  0  0  0  0  0  0
    1.5880    0.7534    3.9389 C   0  0  0  0  0  0  0  0  0  0  0  0
    2.6599    0.7813    4.5190 O   0  0  0  0  0  0  0  0  0  0  0  0
    1.3083    1.3666    2.7790 N   0  0  0  0  0  0  0  0  0  0  0  0
    1.9225    1.9075    2.2583 H   0  0  0  0  0  0  0  0  0  0  0  0
    0.4018   -0.7313    5.6426 C   0  0  1  0  0  0  0  0  0  0  0  0
    0.0456   -0.0914    6.4499 H   0  0  0  0  0  0  0  0  0  0  0  0
   -0.6608   -2.1757    5.5367 S   0  0  0  0  0  0  0  0  0  0  0  0
   -2.3353   -1.5412    5.3672 C   0  0  0  0  0  0  0  0  0  0  0  0
   -2.5723   -0.8799    4.0661 C   0  0  0  0  0  0  0  0  0  0  0  0
   -1.8146   -0.1488    3.3808 N   0  0  0  0  0  0  0  0  0  0  0  0
   -3.7879   -1.0949    3.5332 O   0  0  0  0  0  0  0  0  0  0  0  0
    1.8031   -1.1817    5.9660 C   0  0  0  0  0  0  0  0  0  0  0  0
    2.4665   -2.0413    5.1101 C   0  0  0  0  0  0  0  0  0  0  0  0
    3.7532   -2.4512    5.4014 C   0  0  0  0  0  0  0  0  0  0  0  0
    4.3755   -2.0084    6.5596 C   0  0  0  0  0  0  0  0  0  0  0  0
    3.7055   -1.1504    7.4196 C   0  0  0  0  0  0  0  0  0  0  0  0
    2.4210   -0.7390    7.1209 C   0  0  0  0  0  0  0  0  0  0  0  0
    5.6393   -2.4142    6.8510 O   0  0  0  0  0  0  0  0  0  0  0  0
    6.2678   -3.2978    5.9202 C   0  0  0  0  0  0  0  0  0  0  0  0
    7.6745   -3.6421    6.4139 C   0  0  0  0  0  0  0  0  0  0  0  0
    8.3474   -4.5881    5.4174 C   0  0  0  0  0  0  0  0  0  0  0  0
   -2.1795    5.4820    3.3252 H   0  0  0  0  0  0  0  0  0  0  0  0
   -0.5737    5.5080    2.5577 H   0  0  0  0  0  0  0  0  0  0  0  0
   -2.0413    5.4936    1.5506 H   0  0  0  0  0  0  0  0  0  0  0  0
   -2.5920    3.2247    2.3856 H   0  0  0  0  0  0  0  0  0  0  0  0
   -1.1244    3.2390    3.3926 H   0  0  0  0  0  0  0  0  0  0  0  0
    0.2699    3.4858    1.3571 H   0  0  0  0  0  0  0  0  0  0  0  0
   -1.1977    3.4715    0.3500 H   0  0  0  0  0  0  0  0  0  0  0  0
    0.0021   -0.0041    0.0020 H   0  0  0  0  0  0  0  0  0  0  0  0
    1.0099    1.4631    0.0003 H   0  0  0  0  0  0  0  0  0  0  0  0
   -0.5399    1.4469   -0.8751 H   0  0  0  0  0  0  0  0  0  0  0  0
   -2.5208   -0.8224    6.1653 H   0  0  0  0  0  0  0  0  0  0  0  0
   -3.0353   -2.3701    5.4723 H   0  0  0  0  0  0  0  0  0  0  0  0
   -3.9743   -0.6760    2.6818 H   0  0  0  0  0  0  0  0  0  0  0  0
    1.9801   -2.3892    4.2107 H   0  0  0  0  0  0  0  0  0  0  0  0
    4.2727   -3.1192    4.7303 H   0  0  0  0  0  0  0  0  0  0  0  0
    4.1879   -0.8041    8.3217 H   0  0  0  0  0  0  0  0  0  0  0  0
    1.8989   -0.0714    7.7903 H   0  0  0  0  0  0  0  0  0  0  0  0
    5.6798   -4.2113    5.8325 H   0  0  0  0  0  0  0  0  0  0  0  0
    6.3332   -2.8128    4.9462 H   0  0  0  0  0  0  0  0  0  0  0  0
    8.2625   -2.7285    6.5016 H   0  0  0  0  0  0  0  0  0  0  0  0
    7.6091   -4.1270    7.3879 H   0  0  0  0  0  0  0  0  0  0  0  0
    8.4128   -4.1031    4.4434 H   0  0  0  0  0  0  0  0  0  0  0  0
    9.3495   -4.8333    5.7691 H   0  0  0  0  0  0  0  0  0  0  0  0
    7.7594   -5.5016    5.3296 H   0  0  0  0  0  0  0  0  0  0  0  0
  1  2  1  0  0  0  0
  1 31  1  0  0  0  0
  1 32  1  0  0  0  0
  1 33  1  0  0  0  0
  2  3  1  0  0  0  0
  2 34  1  0  0  0  0
  2 35  1  0  0  0  0
  3  4  1  0  0  0  0
  3 36  1  0  0  0  0
  3 37  1  0  0  0  0
  4  5  1  0  0  0  0
  4  6  1  0  0  0  0
  4  7  1  0  0  0  0
  6 38  1  0  0  0  0
  6 39  1  0  0  0  0
  6 40  1  0  0  0  0
  7 12  1  0  0  0  0
  7  8  1  0  0  0  0
  8 19  1  0  0  0  0
  8  9  2  0  0  0  0
  9 10  1  0  0  0  0
  9 14  1  0  0  0  0
 10 11  2  0  0  0  0
 10 12  1  0  0  0  0
 12 13  1  0  0  0  0
 14 15  1  0  0  0  0
 14 16  1  0  0  0  0
 14 21  1  0  0  0  0
 16 17  1  0  0  0  0
 17 18  1  0  0  0  0
 17 41  1  0  0  0  0
 17 42  1  0  0  0  0
 18 19  2  0  0  0  0
 18 20  1  0  0  0  0
 20 43  1  0  0  0  0
 21 26  2  0  0  0  0
 21 22  1  0  0  0  0
 22 23  2  0  0  0  0
 22 44  1  0  0  0  0
 23 24  1  0  0  0  0
 23 45  1  0  0  0  0
 24 25  2  0  0  0  0
 24 27  1  0  0  0  0
 25 26  1  0  0  0  0
 25 46  1  0  0  0  0
 26 47  1  0  0  0  0
 27 28  1  0  0  0  0
 28 29  1  0  0  0  0
 28 48  1  0  0  0  0
 28 49  1  0  0  0  0
 29 30  1  0  0  0  0
 29 50  1  0  0  0  0
 29 51  1  0  0  0  0
 30 52  1  0  0  0  0
 30 53  1  0  0  0  0
 30 54  1  0  0  0  0
M  END
$$$$
ZINC01842931
  -OEChem-08230709463D

 54 56  0     1  0  0  0  0  0999 V2000
    1.3324   -2.5839   -3.7675 C   0  0  0  0  0  0  0  0  0  0  0  0
    1.8687   -1.8769   -2.5211 C   0  0  0  0  0  0  0  0  0  0  0  0
    1.2609   -2.5162   -1.2710 C   0  0  0  0  0  0  0  0  0  0  0  0
    1.7972   -1.8093   -0.0246 C   0  0  2  0  0  0  0  0  0  0  0  0
    2.8870   -1.8285   -0.0365 H   0  0  0  0  0  0  0  0  0  0  0  0
    1.2882   -2.5266    1.2273 C   0  0  0  0  0  0  0  0  0  0  0  0
    1.3334   -0.4197   -0.0138 N   0  0  3  0  0  0  0  0  0  0  0  0
    2.1473    0.7114   -0.0183 C   0  0  0  0  0  0  0  0  0  0  0  0
    1.3195    1.8043   -0.0009 C   0  0  0  0  0  0  0  0  0  0  0  0
   -0.0161    1.3373    0.0094 C   0  0  0  0  0  0  0  0  0  0  0  0
   -1.0150    2.0360    0.0181 O   0  0  0  0  0  0  0  0  0  0  0  0
    0.0021   -0.0041    0.0020 N   0  0  0  0  0  0  0  0  0  0  0  0
   -0.7754   -0.5841    0.0073 H   0  0  0  0  0  0  0  0  0  0  0  0
    1.6569    3.2646    0.0107 C   0  0  1  0  0  0  0  0  0  0  0  0
    1.7902    3.5865    1.0435 H   0  0  0  0  0  0  0  0  0  0  0  0
    3.1517    3.6422   -0.9111 S   0  0  0  0  0  0  0  0  0  0  0  0
    4.4965    2.8644   -0.0046 C   0  0  0  0  0  0  0  0  0  0  0  0
    4.4542    1.3877   -0.0649 C   0  0  0  0  0  0  0  0  0  0  0  0
    3.4717    0.6052   -0.0383 N   0  0  0  0  0  0  0  0  0  0  0  0
    5.6541    0.7891   -0.1639 O   0  0  0  0  0  0  0  0  0  0  0  0
    0.5078    4.0311   -0.5919 C   0  0  0  0  0  0  0  0  0  0  0  0
    0.1622    3.8295   -1.9154 C   0  0  0  0  0  0  0  0  0  0  0  0
   -0.8944    4.5267   -2.4685 C   0  0  0  0  0  0  0  0  0  0  0  0
   -1.6016    5.4382   -1.6980 C   0  0  0  0  0  0  0  0  0  0  0  0
   -1.2493    5.6428   -0.3719 C   0  0  0  0  0  0  0  0  0  0  0  0
   -0.1955    4.9390    0.1781 C   0  0  0  0  0  0  0  0  0  0  0  0
   -2.6382    6.1291   -2.2413 O   0  0  0  0  0  0  0  0  0  0  0  0
   -2.9446    5.8674   -3.6123 C   0  0  0  0  0  0  0  0  0  0  0  0
   -4.1312    6.7316   -4.0436 C   0  0  0  0  0  0  0  0  0  0  0  0
   -4.4593    6.4514   -5.5115 C   0  0  0  0  0  0  0  0  0  0  0  0
    1.7653   -2.1284   -4.6581 H   0  0  0  0  0  0  0  0  0  0  0  0
    1.6026   -3.6393   -3.7312 H   0  0  0  0  0  0  0  0  0  0  0  0
    0.2472   -2.4877   -3.8012 H   0  0  0  0  0  0  0  0  0  0  0  0
    1.5984   -0.8216   -2.5574 H   0  0  0  0  0  0  0  0  0  0  0  0
    2.9539   -1.9732   -2.4874 H   0  0  0  0  0  0  0  0  0  0  0  0
    1.5312   -3.5716   -1.2346 H   0  0  0  0  0  0  0  0  0  0  0  0
    0.1757   -2.4200   -1.3046 H   0  0  0  0  0  0  0  0  0  0  0  0
    1.6333   -3.5605    1.2193 H   0  0  0  0  0  0  0  0  0  0  0  0
    1.6703   -2.0229    2.1153 H   0  0  0  0  0  0  0  0  0  0  0  0
    0.1984   -2.5074    1.2393 H   0  0  0  0  0  0  0  0  0  0  0  0
    4.4421    3.1749    1.0389 H   0  0  0  0  0  0  0  0  0  0  0  0
    5.4433    3.2059   -0.4229 H   0  0  0  0  0  0  0  0  0  0  0  0
    5.6606   -0.1770   -0.2057 H   0  0  0  0  0  0  0  0  0  0  0  0
    0.7159    3.1230   -2.5160 H   0  0  0  0  0  0  0  0  0  0  0  0
   -1.1667    4.3657   -3.5011 H   0  0  0  0  0  0  0  0  0  0  0  0
   -1.7986    6.3516    0.2301 H   0  0  0  0  0  0  0  0  0  0  0  0
    0.0794    5.0982    1.2104 H   0  0  0  0  0  0  0  0  0  0  0  0
   -2.0785    6.1049   -4.2300 H   0  0  0  0  0  0  0  0  0  0  0  0
   -3.1992    4.8144   -3.7331 H   0  0  0  0  0  0  0  0  0  0  0  0
   -4.9973    6.4940   -3.4259 H   0  0  0  0  0  0  0  0  0  0  0  0
   -3.8766    7.7846   -3.9228 H   0  0  0  0  0  0  0  0  0  0  0  0
   -4.7139    5.3984   -5.6323 H   0  0  0  0  0  0  0  0  0  0  0  0
   -5.3046    7.0671   -5.8188 H   0  0  0  0  0  0  0  0  0  0  0  0
   -3.5932    6.6890   -6.1292 H   0  0  0  0  0  0  0  0  0  0  0  0
  1  2  1  0  0  0  0
  1 31  1  0  0  0  0
  1 32  1  0  0  0  0
  1 33  1  0  0  0  0
  2  3  1  0  0  0  0
  2 34  1  0  0  0  0
  2 35  1  0  0  0  0
  3  4  1  0  0  0  0
  3 36  1  0  0  0  0
  3 37  1  0  0  0  0
  4  5  1  0  0  0  0
  4  6  1  0  0  0  0
  4  7  1  0  0  0  0
  6 38  1  0  0  0  0
  6 39  1  0  0  0  0
  6 40  1  0  0  0  0
  7 12  1  0  0  0  0
  7  8  1  0  0  0  0
  8 19  1  0  0  0  0
  8  9  2  0  0  0  0
  9 10  1  0  0  0  0
  9 14  1  0  0  0  0
 10 11  2  0  0  0  0
 10 12  1  0  0  0  0
 12 13  1  0  0  0  0
 14 15  1  0  0  0  0
 14 16  1  0  0  0  0
 14 21  1  0  0  0  0
 16 17  1  0  0  0  0
 17 18  1  0  0  0  0
 17 41  1  0  0  0  0
 17 42  1  0  0  0  0
 18 19  2  0  0  0  0
 18 20  1  0  0  0  0
 20 43  1  0  0  0  0
 21 26  2  0  0  0  0
 21 22  1  0  0  0  0
 22 23  2  0  0  0  0
 22 44  1  0  0  0  0
 23 24  1  0  0  0  0
 23 45  1  0  0  0  0
 24 25  2  0  0  0  0
 24 27  1  0  0  0  0
 25 26  1  0  0  0  0
 25 46  1  0  0  0  0
 26 47  1  0  0  0  0
 27 28  1  0  0  0  0
 28 29  1  0  0  0  0
 28 48  1  0  0  0  0
 28 49  1  0  0  0  0
 29 30  1  0  0  0  0
 29 50  1  0  0  0  0
 29 51  1  0  0  0  0
 30 52  1  0  0  0  0
 30 53  1  0  0  0  0
 30 54  1  0  0  0  0
M  END
$$$$
ZINC01848814
  -OEChem-08230709463D

 57 59  0     1  0  0  0  0  0999 V2000
   -5.6428    7.3192   -5.9442 C   0  0  0  0  0  0  0  0  0  0  0  0
   -4.4573    6.4537   -5.5124 C   0  0  0  0  0  0  0  0  0  0  0  0
   -4.1291    6.7341   -4.0446 C   0  0  0  0  0  0  0  0  0  0  0  0
   -2.9436    5.8686   -3.6128 C   0  0  0  0  0  0  0  0  0  0  0  0
   -2.6370    6.1304   -2.2418 O   0  0  0  0  0  0  0  0  0  0  0  0
   -1.6013    5.4385   -1.6982 C   0  0  0  0  0  0  0  0  0  0  0  0
   -1.2490    5.6432   -0.3720 C   0  0  0  0  0  0  0  0  0  0  0  0
   -0.1955    4.9390    0.1781 C   0  0  0  0  0  0  0  0  0  0  0  0
    0.5078    4.0311   -0.5919 C   0  0  0  0  0  0  0  0  0  0  0  0
    0.1622    3.8295   -1.9154 C   0  0  0  0  0  0  0  0  0  0  0  0
   -0.8944    4.5267   -2.4685 C   0  0  0  0  0  0  0  0  0  0  0  0
    1.6569    3.2646    0.0107 C   0  0  1  0  0  0  0  0  0  0  0  0
    1.7902    3.5865    1.0435 H   0  0  0  0  0  0  0  0  0  0  0  0
    1.3195    1.8043   -0.0009 C   0  0  0  0  0  0  0  0  0  0  0  0
   -0.0161    1.3373    0.0094 C   0  0  0  0  0  0  0  0  0  0  0  0
   -1.0150    2.0360    0.0181 O   0  0  0  0  0  0  0  0  0  0  0  0
    0.0021   -0.0041    0.0020 N   0  0  0  0  0  0  0  0  0  0  0  0
   -0.7754   -0.5841    0.0073 H   0  0  0  0  0  0  0  0  0  0  0  0
    1.3334   -0.4197   -0.0138 N   0  0  3  0  0  0  0  0  0  0  0  0
    2.1473    0.7114   -0.0183 C   0  0  0  0  0  0  0  0  0  0  0  0
    3.4717    0.6052   -0.0383 N   0  0  0  0  0  0  0  0  0  0  0  0
    4.4542    1.3877   -0.0649 C   0  0  0  0  0  0  0  0  0  0  0  0
    4.4965    2.8644   -0.0046 C   0  0  0  0  0  0  0  0  0  0  0  0
    3.1517    3.6422   -0.9111 S   0  0  0  0  0  0  0  0  0  0  0  0
    5.6541    0.7891   -0.1639 O   0  0  0  0  0  0  0  0  0  0  0  0
    1.7972   -1.8093   -0.0246 C   0  0  1  0  0  0  0  0  0  0  0  0
    2.8870   -1.8285   -0.0365 H   0  0  0  0  0  0  0  0  0  0  0  0
    1.2882   -2.5266    1.2273 C   0  0  0  0  0  0  0  0  0  0  0  0
    1.2609   -2.5162   -1.2710 C   0  0  0  0  0  0  0  0  0  0  0  0
    1.8687   -1.8769   -2.5211 C   0  0  0  0  0  0  0  0  0  0  0  0
    1.3324   -2.5839   -3.7675 C   0  0  0  0  0  0  0  0  0  0  0  0
   -5.8766    7.1195   -6.9899 H   0  0  0  0  0  0  0  0  0  0  0  0
   -6.5093    7.0827   -5.3266 H   0  0  0  0  0  0  0  0  0  0  0  0
   -5.3871    8.3719   -5.8237 H   0  0  0  0  0  0  0  0  0  0  0  0
   -3.5908    6.6902   -6.1300 H   0  0  0  0  0  0  0  0  0  0  0  0
   -4.7130    5.4010   -5.6329 H   0  0  0  0  0  0  0  0  0  0  0  0
   -4.9955    6.4976   -3.4270 H   0  0  0  0  0  0  0  0  0  0  0  0
   -3.8734    7.7868   -3.9240 H   0  0  0  0  0  0  0  0  0  0  0  0
   -2.0771    6.1051   -4.2304 H   0  0  0  0  0  0  0  0  0  0  0  0
   -3.1992    4.8159   -3.7333 H   0  0  0  0  0  0  0  0  0  0  0  0
   -1.7981    6.3522    0.2298 H   0  0  0  0  0  0  0  0  0  0  0  0
    0.0791    5.0979    1.2105 H   0  0  0  0  0  0  0  0  0  0  0  0
    0.7161    3.1233   -2.5161 H   0  0  0  0  0  0  0  0  0  0  0  0
   -1.1670    4.3654   -3.5010 H   0  0  0  0  0  0  0  0  0  0  0  0
    4.4421    3.1749    1.0389 H   0  0  0  0  0  0  0  0  0  0  0  0
    5.4433    3.2059   -0.4229 H   0  0  0  0  0  0  0  0  0  0  0  0
    5.6606   -0.1770   -0.2057 H   0  0  0  0  0  0  0  0  0  0  0  0
    1.6703   -2.0229    2.1153 H   0  0  0  0  0  0  0  0  0  0  0  0
    0.1984   -2.5074    1.2393 H   0  0  0  0  0  0  0  0  0  0  0  0
    1.6333   -3.5605    1.2193 H   0  0  0  0  0  0  0  0  0  0  0  0
    1.5312   -3.5716   -1.2346 H   0  0  0  0  0  0  0  0  0  0  0  0
    0.1757   -2.4200   -1.3046 H   0  0  0  0  0  0  0  0  0  0  0  0
    1.5984   -0.8216   -2.5574 H   0  0  0  0  0  0  0  0  0  0  0  0
    2.9539   -1.9732   -2.4874 H   0  0  0  0  0  0  0  0  0  0  0  0
    1.6026   -3.6393   -3.7312 H   0  0  0  0  0  0  0  0  0  0  0  0
    0.2472   -2.4877   -3.8012 H   0  0  0  0  0  0  0  0  0  0  0  0
    1.7653   -2.1284   -4.6581 H   0  0  0  0  0  0  0  0  0  0  0  0
  1  2  1  0  0  0  0
  1 32  1  0  0  0  0
  1 33  1  0  0  0  0
  1 34  1  0  0  0  0
  2  3  1  0  0  0  0
  2 35  1  0  0  0  0
  2 36  1  0  0  0  0
  3  4  1  0  0  0  0
  3 37  1  0  0  0  0
  3 38  1  0  0  0  0
  4  5  1  0  0  0  0
  4 39  1  0  0  0  0
  4 40  1  0  0  0  0
  5  6  1  0  0  0  0
  6 11  2  0  0  0  0
  6  7  1  0  0  0  0
  7  8  2  0  0  0  0
  7 41  1  0  0  0  0
  8  9  1  0  0  0  0
  8 42  1  0  0  0  0
  9 10  2  0  0  0  0
  9 12  1  0  0  0  0
 10 11  1  0  0  0  0
 10 43  1  0  0  0  0
 11 44  1  0  0  0  0
 12 13  1  0  0  0  0
 12 24  1  0  0  0  0
 12 14  1  0  0  0  0
 14 20  2  0  0  0  0
 14 15  1  0  0  0  0
 15 16  2  0  0  0  0
 15 17  1  0  0  0  0
 17 18  1  0  0  0  0
 17 19  1  0  0  0  0
 19 20  1  0  0  0  0
 19 26  1  0  0  0  0
 20 21  1  0  0  0  0
 21 22  2  0  0  0  0
 22 23  1  0  0  0  0
 22 25  1  0  0  0  0
 23 24  1  0  0  0  0
 23 45  1  0  0  0  0
 23 46  1  0  0  0  0
 25 47  1  0  0  0  0
 26 27  1  0  0  0  0
 26 28  1  0  0  0  0
 26 29  1  0  0  0  0
 28 48  1  0  0  0  0
 28 49  1  0  0  0  0
 28 50  1  0  0  0  0
 29 30  1  0  0  0  0
 29 51  1  0  0  0  0
 29 52  1  0  0  0  0
 30 31  1  0  0  0  0
 30 53  1  0  0  0  0
 30 54  1  0  0  0  0
 31 55  1  0  0  0  0
 31 56  1  0  0  0  0
 31 57  1  0  0  0  0
M  END
$$$$
ZINC01848816
  -OEChem-08230709463D

 57 59  0     1  0  0  0  0  0999 V2000
   -0.0127    1.0858    0.0080 C   0  0  0  0  0  0  0  0  0  0  0  0
   -0.7288    1.5792    1.2668 C   0  0  0  0  0  0  0  0  0  0  0  0
    0.0111    1.0724    2.5063 C   0  0  0  0  0  0  0  0  0  0  0  0
   -0.7050    1.5658    3.7651 C   0  0  0  0  0  0  0  0  0  0  0  0
   -0.0138    1.0924    4.9228 O   0  0  0  0  0  0  0  0  0  0  0  0
   -0.5237    1.4441    6.1325 C   0  0  0  0  0  0  0  0  0  0  0  0
   -1.6624    2.2333    6.2038 C   0  0  0  0  0  0  0  0  0  0  0  0
   -2.1822    2.5842    7.4347 C   0  0  0  0  0  0  0  0  0  0  0  0
   -1.5615    2.1598    8.5950 C   0  0  0  0  0  0  0  0  0  0  0  0
   -0.4232    1.3779    8.5267 C   0  0  0  0  0  0  0  0  0  0  0  0
    0.0970    1.0191    7.2982 C   0  0  0  0  0  0  0  0  0  0  0  0
   -2.1268    2.5497    9.9364 C   0  0  2  0  0  0  0  0  0  0  0  0
   -1.5177    2.0971   10.7189 H   0  0  0  0  0  0  0  0  0  0  0  0
   -3.5244    2.0191   10.0445 C   0  0  0  0  0  0  0  0  0  0  0  0
   -3.9615    0.8873    9.3163 C   0  0  0  0  0  0  0  0  0  0  0  0
   -3.2848    0.2347    8.5403 O   0  0  0  0  0  0  0  0  0  0  0  0
   -5.2462    0.6536    9.6238 N   0  0  0  0  0  0  0  0  0  0  0  0
   -5.7957   -0.0621    9.2680 H   0  0  0  0  0  0  0  0  0  0  0  0
   -5.6546    1.6194   10.5436 N   0  0  3  0  0  0  0  0  0  0  0  0
   -4.5790    2.4682   10.7971 C   0  0  0  0  0  0  0  0  0  0  0  0
   -4.6933    3.4906   11.6381 N   0  0  0  0  0  0  0  0  0  0  0  0
   -3.9587    4.4190   12.0583 C   0  0  0  0  0  0  0  0  0  0  0  0
   -2.5296    4.6945   11.7969 C   0  0  0  0  0  0  0  0  0  0  0  0
   -2.0442    4.3364   10.1025 S   0  0  0  0  0  0  0  0  0  0  0  0
   -4.5667    5.2996   12.8723 O   0  0  0  0  0  0  0  0  0  0  0  0
   -6.9878    1.7234   11.1419 C   0  0  1  0  0  0  0  0  0  0  0  0
   -7.0149    2.5736   11.8234 H   0  0  0  0  0  0  0  0  0  0  0  0
   -8.0283    1.9215   10.0378 C   0  0  0  0  0  0  0  0  0  0  0  0
   -7.3017    0.4404   11.9142 C   0  0  0  0  0  0  0  0  0  0  0  0
   -6.3375    0.3070   13.0947 C   0  0  0  0  0  0  0  0  0  0  0  0
   -6.6514   -0.9760   13.8670 C   0  0  0  0  0  0  0  0  0  0  0  0
    0.0021   -0.0041    0.0020 H   0  0  0  0  0  0  0  0  0  0  0  0
    1.0099    1.4631    0.0003 H   0  0  0  0  0  0  0  0  0  0  0  0
   -0.5399    1.4469   -0.8751 H   0  0  0  0  0  0  0  0  0  0  0  0
   -0.7436    2.6691    1.2728 H   0  0  0  0  0  0  0  0  0  0  0  0
   -1.7514    1.2020    1.2746 H   0  0  0  0  0  0  0  0  0  0  0  0
    0.0259   -0.0175    2.5003 H   0  0  0  0  0  0  0  0  0  0  0  0
    1.0337    1.4497    2.4986 H   0  0  0  0  0  0  0  0  0  0  0  0
   -0.7198    2.6557    3.7711 H   0  0  0  0  0  0  0  0  0  0  0  0
   -1.7276    1.1885    3.7729 H   0  0  0  0  0  0  0  0  0  0  0  0
   -2.1448    2.5691    5.2978 H   0  0  0  0  0  0  0  0  0  0  0  0
   -3.0712    3.1949    7.4907 H   0  0  0  0  0  0  0  0  0  0  0  0
    0.0598    1.0476    9.4344 H   0  0  0  0  0  0  0  0  0  0  0  0
    0.9864    0.4086    7.2454 H   0  0  0  0  0  0  0  0  0  0  0  0
   -2.3312    5.7460   12.0042 H   0  0  0  0  0  0  0  0  0  0  0  0
   -1.9259    4.0847   12.4690 H   0  0  0  0  0  0  0  0  0  0  0  0
   -5.5024    5.1475   13.0630 H   0  0  0  0  0  0  0  0  0  0  0  0
   -7.8047    2.8354    9.4876 H   0  0  0  0  0  0  0  0  0  0  0  0
   -8.0012    1.0712    9.3562 H   0  0  0  0  0  0  0  0  0  0  0  0
   -9.0202    1.9988   10.4829 H   0  0  0  0  0  0  0  0  0  0  0  0
   -8.3261    0.4807   12.2845 H   0  0  0  0  0  0  0  0  0  0  0  0
   -7.1878   -0.4187   11.2531 H   0  0  0  0  0  0  0  0  0  0  0  0
   -5.3132    0.2667   12.7244 H   0  0  0  0  0  0  0  0  0  0  0  0
   -6.4515    1.1661   13.7558 H   0  0  0  0  0  0  0  0  0  0  0  0
   -7.6758   -0.9357   14.2373 H   0  0  0  0  0  0  0  0  0  0  0  0
   -6.5375   -1.8351   13.2059 H   0  0  0  0  0  0  0  0  0  0  0  0
   -5.9646   -1.0711   14.7080 H   0  0  0  0  0  0  0  0  0  0  0  0
  1  2  1  0  0  0  0
  1 32  1  0  0  0  0
  1 33  1  0  0  0  0
  1 34  1  0  0  0  0
  2  3  1  0  0  0  0
  2 35  1  0  0  0  0
  2 36  1  0  0  0  0
  3  4  1  0  0  0  0
  3 37  1  0  0  0  0
  3 38  1  0  0  0  0
  4  5  1  0  0  0  0
  4 39  1  0  0  0  0
  4 40  1  0  0  0  0
  5  6  1  0  0  0  0
  6 11  2  0  0  0  0
  6  7  1  0  0  0  0
  7  8  2  0  0  0  0
  7 41  1  0  0  0  0
  8  9  1  0  0  0  0
  8 42  1  0  0  0  0
  9 10  2  0  0  0  0
  9 12  1  0  0  0  0
 10 11  1  0  0  0  0
 10 43  1  0  0  0  0
 11 44  1  0  0  0  0
 12 13  1  0  0  0  0
 12 24  1  0  0  0  0
 12 14  1  0  0  0  0
 14 20  2  0  0  0  0
 14 15  1  0  0  0  0
 15 16  2  0  0  0  0
 15 17  1  0  0  0  0
 17 18  1  0  0  0  0
 17 19  1  0  0  0  0
 19 20  1  0  0  0  0
 19 26  1  0  0  0  0
 20 21  1  0  0  0  0
 21 22  2  0  0  0  0
 22 23  1  0  0  0  0
 22 25  1  0  0  0  0
 23 24  1  0  0  0  0
 23 45  1  0  0  0  0
 23 46  1  0  0  0  0
 25 47  1  0  0  0  0
 26 27  1  0  0  0  0
 26 28  1  0  0  0  0
 26 29  1  0  0  0  0
 28 48  1  0  0  0  0
 28 49  1  0  0  0  0
 28 50  1  0  0  0  0
 29 30  1  0  0  0  0
 29 51  1  0  0  0  0
 29 52  1  0  0  0  0
 30 31  1  0  0  0  0
 30 53  1  0  0  0  0
 30 54  1  0  0  0  0
 31 55  1  0  0  0  0
 31 56  1  0  0  0  0
 31 57  1  0  0  0  0
M  END
$$$$
ZINC01848818
  -OEChem-08230709463D

 57 59  0     1  0  0  0  0  0999 V2000
    2.2062   12.6482   -5.2722 C   0  0  0  0  0  0  0  0  0  0  0  0
    2.2702   11.4486   -4.3247 C   0  0  0  0  0  0  0  0  0  0  0  0
    1.2001   11.5968   -3.2413 C   0  0  0  0  0  0  0  0  0  0  0  0
    1.2641   10.3971   -2.2938 C   0  0  0  0  0  0  0  0  0  0  0  0
    0.2646   10.5355   -1.2819 O   0  0  0  0  0  0  0  0  0  0  0  0
    0.1862    9.5468   -0.3529 C   0  0  0  0  0  0  0  0  0  0  0  0
   -0.7612    9.6169    0.6582 C   0  0  0  0  0  0  0  0  0  0  0  0
   -0.8386    8.6108    1.6016 C   0  0  0  0  0  0  0  0  0  0  0  0
    0.0276    7.5348    1.5392 C   0  0  0  0  0  0  0  0  0  0  0  0
    0.9764    7.4654    0.5359 C   0  0  0  0  0  0  0  0  0  0  0  0
    1.0538    8.4659   -0.4136 C   0  0  0  0  0  0  0  0  0  0  0  0
   -0.0587    6.4389    2.5701 C   0  0  1  0  0  0  0  0  0  0  0  0
   -0.8393    6.6943    3.2867 H   0  0  0  0  0  0  0  0  0  0  0  0
   -0.4313    5.1593    1.8846 C   0  0  0  0  0  0  0  0  0  0  0  0
   -1.1477    5.1362    0.6646 C   0  0  0  0  0  0  0  0  0  0  0  0
   -1.5307    6.1136    0.0448 O   0  0  0  0  0  0  0  0  0  0  0  0
   -1.3295    3.8575    0.3020 N   0  0  0  0  0  0  0  0  0  0  0  0
   -1.7873    3.5517   -0.4966 H   0  0  0  0  0  0  0  0  0  0  0  0
   -0.7487    3.0441    1.2749 N   0  0  3  0  0  0  0  0  0  0  0  0
   -0.1854    3.8615    2.2528 C   0  0  0  0  0  0  0  0  0  0  0  0
    0.4490    3.3442    3.2995 N   0  0  0  0  0  0  0  0  0  0  0  0
    1.0609    3.7779    4.3073 C   0  0  0  0  0  0  0  0  0  0  0  0
    1.2530    5.1658    4.7796 C   0  0  0  0  0  0  0  0  0  0  0  0
    1.5113    6.3342    3.4367 S   0  0  0  0  0  0  0  0  0  0  0  0
    1.6300    2.8328    5.0759 O   0  0  0  0  0  0  0  0  0  0  0  0
   -0.7288    1.5792    1.2668 C   0  0  2  0  0  0  0  0  0  0  0  0
   -0.2017    1.2182    2.1499 H   0  0  0  0  0  0  0  0  0  0  0  0
   -0.0127    1.0858    0.0080 C   0  0  0  0  0  0  0  0  0  0  0  0
   -2.1642    1.0497    1.2777 C   0  0  0  0  0  0  0  0  0  0  0  0
   -2.8412    1.4380    2.5937 C   0  0  0  0  0  0  0  0  0  0  0  0
   -4.2766    0.9085    2.6045 C   0  0  0  0  0  0  0  0  0  0  0  0
    2.9686   12.5427   -6.0440 H   0  0  0  0  0  0  0  0  0  0  0  0
    1.2215   12.6915   -5.7376 H   0  0  0  0  0  0  0  0  0  0  0  0
    2.3829   13.5652   -4.7099 H   0  0  0  0  0  0  0  0  0  0  0  0
    3.2549   11.4054   -3.8592 H   0  0  0  0  0  0  0  0  0  0  0  0
    2.0936   10.5317   -4.8869 H   0  0  0  0  0  0  0  0  0  0  0  0
    0.2154   11.6400   -3.7067 H   0  0  0  0  0  0  0  0  0  0  0  0
    1.3767   12.5137   -2.6790 H   0  0  0  0  0  0  0  0  0  0  0  0
    2.2487   10.3539   -1.8284 H   0  0  0  0  0  0  0  0  0  0  0  0
    1.0874    9.4802   -2.8561 H   0  0  0  0  0  0  0  0  0  0  0  0
   -1.4380   10.4571    0.7073 H   0  0  0  0  0  0  0  0  0  0  0  0
   -1.5759    8.6649    2.3889 H   0  0  0  0  0  0  0  0  0  0  0  0
    1.6549    6.6263    0.4921 H   0  0  0  0  0  0  0  0  0  0  0  0
    1.7919    8.4089   -1.1999 H   0  0  0  0  0  0  0  0  0  0  0  0
    0.3718    5.4695    5.3446 H   0  0  0  0  0  0  0  0  0  0  0  0
    2.1199    5.1951    5.4398 H   0  0  0  0  0  0  0  0  0  0  0  0
    1.5228    1.9141    4.7938 H   0  0  0  0  0  0  0  0  0  0  0  0
    0.0021   -0.0041    0.0020 H   0  0  0  0  0  0  0  0  0  0  0  0
    1.0099    1.4631    0.0003 H   0  0  0  0  0  0  0  0  0  0  0  0
   -0.5399    1.4469   -0.8751 H   0  0  0  0  0  0  0  0  0  0  0  0
   -2.7171    1.4814    0.4434 H   0  0  0  0  0  0  0  0  0  0  0  0
   -2.1517   -0.0361    1.1822 H   0  0  0  0  0  0  0  0  0  0  0  0
   -2.2883    1.0063    3.4279 H   0  0  0  0  0  0  0  0  0  0  0  0
   -2.8538    2.5238    2.6892 H   0  0  0  0  0  0  0  0  0  0  0  0
   -4.7588    1.1851    3.5420 H   0  0  0  0  0  0  0  0  0  0  0  0
   -4.8295    1.3402    1.7702 H   0  0  0  0  0  0  0  0  0  0  0  0
   -4.2640   -0.1773    2.5090 H   0  0  0  0  0  0  0  0  0  0  0  0
  1  2  1  0  0  0  0
  1 32  1  0  0  0  0
  1 33  1  0  0  0  0
  1 34  1  0  0  0  0
  2  3  1  0  0  0  0
  2 35  1  0  0  0  0
  2 36  1  0  0  0  0
  3  4  1  0  0  0  0
  3 37  1  0  0  0  0
  3 38  1  0  0  0  0
  4  5  1  0  0  0  0
  4 39  1  0  0  0  0
  4 40  1  0  0  0  0
  5  6  1  0  0  0  0
  6 11  2  0  0  0  0
  6  7  1  0  0  0  0
  7  8  2  0  0  0  0
  7 41  1  0  0  0  0
  8  9  1  0  0  0  0
  8 42  1  0  0  0  0
  9 10  2  0  0  0  0
  9 12  1  0  0  0  0
 10 11  1  0  0  0  0
 10 43  1  0  0  0  0
 11 44  1  0  0  0  0
 12 13  1  0  0  0  0
 12 24  1  0  0  0  0
 12 14  1  0  0  0  0
 14 20  2  0  0  0  0
 14 15  1  0  0  0  0
 15 16  2  0  0  0  0
 15 17  1  0  0  0  0
 17 18  1  0  0  0  0
 17 19  1  0  0  0  0
 19 20  1  0  0  0  0
 19 26  1  0  0  0  0
 20 21  1  0  0  0  0
 21 22  2  0  0  0  0
 22 23  1  0  0  0  0
 22 25  1  0  0  0  0
 23 24  1  0  0  0  0
 23 45  1  0  0  0  0
 23 46  1  0  0  0  0
 25 47  1  0  0  0  0
 26 27  1  0  0  0  0
 26 28  1  0  0  0  0
 26 29  1  0  0  0  0
 28 48  1  0  0  0  0
 28 49  1  0  0  0  0
 28 50  1  0  0  0  0
 29 30  1  0  0  0  0
 29 51  1  0  0  0  0
 29 52  1  0  0  0  0
 30 31  1  0  0  0  0
 30 53  1  0  0  0  0
 30 54  1  0  0  0  0
 31 55  1  0  0  0  0
 31 56  1  0  0  0  0
 31 57  1  0  0  0  0
M  END
$$$$
ZINC01848819
  -OEChem-08230709463D

 57 59  0     1  0  0  0  0  0999 V2000
   -0.0127    1.0858    0.0080 C   0  0  0  0  0  0  0  0  0  0  0  0
   -0.7288    1.5792    1.2668 C   0  0  0  0  0  0  0  0  0  0  0  0
    0.0111    1.0724    2.5063 C   0  0  0  0  0  0  0  0  0  0  0  0
   -0.7050    1.5658    3.7651 C   0  0  0  0  0  0  0  0  0  0  0  0
   -0.0138    1.0924    4.9228 O   0  0  0  0  0  0  0  0  0  0  0  0
   -0.5237    1.4441    6.1325 C   0  0  0  0  0  0  0  0  0  0  0  0
   -1.6624    2.2333    6.2038 C   0  0  0  0  0  0  0  0  0  0  0  0
   -2.1822    2.5842    7.4347 C   0  0  0  0  0  0  0  0  0  0  0  0
   -1.5615    2.1598    8.5950 C   0  0  0  0  0  0  0  0  0  0  0  0
   -0.4232    1.3779    8.5267 C   0  0  0  0  0  0  0  0  0  0  0  0
    0.0970    1.0191    7.2982 C   0  0  0  0  0  0  0  0  0  0  0  0
   -2.1268    2.5497    9.9364 C   0  0  2  0  0  0  0  0  0  0  0  0
   -1.5010    2.1207   10.7190 H   0  0  0  0  0  0  0  0  0  0  0  0
   -3.5100    1.9856   10.0603 C   0  0  0  0  0  0  0  0  0  0  0  0
   -3.9215    0.8327    9.3488 C   0  0  0  0  0  0  0  0  0  0  0  0
   -3.2340    0.1905    8.5735 O   0  0  0  0  0  0  0  0  0  0  0  0
   -5.1966    0.5676    9.6701 N   0  0  0  0  0  0  0  0  0  0  0  0
   -5.7296   -0.1664    9.3265 H   0  0  0  0  0  0  0  0  0  0  0  0
   -5.6229    1.5311   10.5841 N   0  0  3  0  0  0  0  0  0  0  0  0
   -4.5695    2.4131   10.8169 C   0  0  0  0  0  0  0  0  0  0  0  0
   -4.7048    3.4419   11.6470 N   0  0  0  0  0  0  0  0  0  0  0  0
   -3.9920    4.3941   12.0512 C   0  0  0  0  0  0  0  0  0  0  0  0
   -2.5726    4.7039   11.7763 C   0  0  0  0  0  0  0  0  0  0  0  0
   -2.0907    4.3397   10.0820 S   0  0  0  0  0  0  0  0  0  0  0  0
   -4.6172    5.2674   12.8600 O   0  0  0  0  0  0  0  0  0  0  0  0
   -6.9525    1.6040   11.1949 C   0  0  2  0  0  0  0  0  0  0  0  0
   -6.9970    2.4608   11.8671 H   0  0  0  0  0  0  0  0  0  0  0  0
   -7.2218    0.3216   11.9848 C   0  0  0  0  0  0  0  0  0  0  0  0
   -8.0092    1.7597   10.0994 C   0  0  0  0  0  0  0  0  0  0  0  0
   -7.8152    3.1017    9.3908 C   0  0  0  0  0  0  0  0  0  0  0  0
   -8.8719    3.2574    8.2953 C   0  0  0  0  0  0  0  0  0  0  0  0
    0.0021   -0.0041    0.0020 H   0  0  0  0  0  0  0  0  0  0  0  0
    1.0099    1.4631    0.0003 H   0  0  0  0  0  0  0  0  0  0  0  0
   -0.5399    1.4469   -0.8751 H   0  0  0  0  0  0  0  0  0  0  0  0
   -0.7436    2.6691    1.2728 H   0  0  0  0  0  0  0  0  0  0  0  0
   -1.7514    1.2020    1.2746 H   0  0  0  0  0  0  0  0  0  0  0  0
    0.0259   -0.0175    2.5003 H   0  0  0  0  0  0  0  0  0  0  0  0
    1.0337    1.4497    2.4986 H   0  0  0  0  0  0  0  0  0  0  0  0
   -0.7198    2.6557    3.7711 H   0  0  0  0  0  0  0  0  0  0  0  0
   -1.7276    1.1885    3.7729 H   0  0  0  0  0  0  0  0  0  0  0  0
   -2.1448    2.5691    5.2978 H   0  0  0  0  0  0  0  0  0  0  0  0
   -3.0712    3.1949    7.4907 H   0  0  0  0  0  0  0  0  0  0  0  0
    0.0598    1.0476    9.4344 H   0  0  0  0  0  0  0  0  0  0  0  0
    0.9864    0.4086    7.2454 H   0  0  0  0  0  0  0  0  0  0  0  0
   -1.9484    4.1193   12.4522 H   0  0  0  0  0  0  0  0  0  0  0  0
   -2.4003    5.7625   11.9704 H   0  0  0  0  0  0  0  0  0  0  0  0
   -5.5472    5.0929   13.0595 H   0  0  0  0  0  0  0  0  0  0  0  0
   -6.4690    0.2107   12.7652 H   0  0  0  0  0  0  0  0  0  0  0  0
   -8.2111    0.3758   12.4392 H   0  0  0  0  0  0  0  0  0  0  0  0
   -7.1773   -0.5353   11.3125 H   0  0  0  0  0  0  0  0  0  0  0  0
   -7.9063    0.9494    9.3776 H   0  0  0  0  0  0  0  0  0  0  0  0
   -9.0030    1.7247   10.5457 H   0  0  0  0  0  0  0  0  0  0  0  0
   -7.9180    3.9119   10.1126 H   0  0  0  0  0  0  0  0  0  0  0  0
   -6.8213    3.1366    8.9445 H   0  0  0  0  0  0  0  0  0  0  0  0
   -8.7690    2.4472    7.5735 H   0  0  0  0  0  0  0  0  0  0  0  0
   -9.8657    3.2225    8.7415 H   0  0  0  0  0  0  0  0  0  0  0  0
   -8.7337    4.2135    7.7904 H   0  0  0  0  0  0  0  0  0  0  0  0
  1  2  1  0  0  0  0
  1 32  1  0  0  0  0
  1 33  1  0  0  0  0
  1 34  1  0  0  0  0
  2  3  1  0  0  0  0
  2 35  1  0  0  0  0
  2 36  1  0  0  0  0
  3  4  1  0  0  0  0
  3 37  1  0  0  0  0
  3 38  1  0  0  0  0
  4  5  1  0  0  0  0
  4 39  1  0  0  0  0
  4 40  1  0  0  0  0
  5  6  1  0  0  0  0
  6 11  2  0  0  0  0
  6  7  1  0  0  0  0
  7  8  2  0  0  0  0
  7 41  1  0  0  0  0
  8  9  1  0  0  0  0
  8 42  1  0  0  0  0
  9 10  2  0  0  0  0
  9 12  1  0  0  0  0
 10 11  1  0  0  0  0
 10 43  1  0  0  0  0
 11 44  1  0  0  0  0
 12 13  1  0  0  0  0
 12 24  1  0  0  0  0
 12 14  1  0  0  0  0
 14 20  2  0  0  0  0
 14 15  1  0  0  0  0
 15 16  2  0  0  0  0
 15 17  1  0  0  0  0
 17 18  1  0  0  0  0
 17 19  1  0  0  0  0
 19 20  1  0  0  0  0
 19 26  1  0  0  0  0
 20 21  1  0  0  0  0
 21 22  2  0  0  0  0
 22 23  1  0  0  0  0
 22 25  1  0  0  0  0
 23 24  1  0  0  0  0
 23 45  1  0  0  0  0
 23 46  1  0  0  0  0
 25 47  1  0  0  0  0
 26 27  1  0  0  0  0
 26 28  1  0  0  0  0
 26 29  1  0  0  0  0
 28 48  1  0  0  0  0
 28 49  1  0  0  0  0
 28 50  1  0  0  0  0
 29 30  1  0  0  0  0
 29 51  1  0  0  0  0
 29 52  1  0  0  0  0
 30 31  1  0  0  0  0
 30 53  1  0  0  0  0
 30 54  1  0  0  0  0
 31 55  1  0  0  0  0
 31 56  1  0  0  0  0
 31 57  1  0  0  0  0
M  END
$$$$
ZINC01864029
  -OEChem-08230709463D

 57 59  0     1  0  0  0  0  0999 V2000
   -2.5140    9.8808   -5.9250 C   0  0  0  0  0  0  0  0  0  0  0  0
   -2.0812    8.4808   -5.4852 C   0  0  0  0  0  0  0  0  0  0  0  0
   -1.5654    8.5350   -4.0458 C   0  0  0  0  0  0  0  0  0  0  0  0
   -1.1326    7.1349   -3.6060 C   0  0  0  0  0  0  0  0  0  0  0  0
   -0.6509    7.1856   -2.2616 O   0  0  0  0  0  0  0  0  0  0  0  0
   -0.2239    6.0170   -1.7148 C   0  0  0  0  0  0  0  0  0  0  0  0
    0.2565    5.9934   -0.4135 C   0  0  0  0  0  0  0  0  0  0  0  0
    0.6904    4.8044    0.1399 C   0  0  0  0  0  0  0  0  0  0  0  0
    0.6466    3.6385   -0.6021 C   0  0  0  0  0  0  0  0  0  0  0  0
    0.1736    3.6604   -1.9011 C   0  0  0  0  0  0  0  0  0  0  0  0
   -0.2672    4.8458   -2.4571 C   0  0  0  0  0  0  0  0  0  0  0  0
    1.1210    2.3429    0.0039 C   0  0  1  0  0  0  0  0  0  0  0  0
    1.4282    2.5305    1.0328 H   0  0  0  0  0  0  0  0  0  0  0  0
   -0.0165    1.3670    0.0096 C   0  0  0  0  0  0  0  0  0  0  0  0
   -1.3688    1.7827    0.0312 C   0  0  0  0  0  0  0  0  0  0  0  0
   -1.7589    2.9377    0.0391 O   0  0  0  0  0  0  0  0  0  0  0  0
   -2.1495    0.6918    0.0330 N   0  0  0  0  0  0  0  0  0  0  0  0
   -3.1194    0.6858    0.0449 H   0  0  0  0  0  0  0  0  0  0  0  0
   -1.3239   -0.4323    0.0208 N   0  0  3  0  0  0  0  0  0  0  0  0
    0.0021   -0.0041    0.0020 C   0  0  0  0  0  0  0  0  0  0  0  0
    1.0055   -0.8749   -0.0196 N   0  0  0  0  0  0  0  0  0  0  0  0
    2.2603   -0.8274   -0.0583 C   0  0  0  0  0  0  0  0  0  0  0  0
    3.1705    0.3371   -0.0142 C   0  0  0  0  0  0  0  0  0  0  0  0
    2.5409    1.7543   -0.9255 S   0  0  0  0  0  0  0  0  0  0  0  0
    2.8707   -2.0215   -0.1542 O   0  0  0  0  0  0  0  0  0  0  0  0
   -1.7742   -1.8263    0.0267 C   0  0  0  0  0  0  0  0  0  0  0  0
   -2.5994   -2.0904    1.2878 C   0  0  0  0  0  0  0  0  0  0  0  0
   -1.7053   -1.9485    2.5213 C   0  0  0  0  0  0  0  0  0  0  0  0
   -2.6350   -2.0895   -1.2104 C   0  0  0  0  0  0  0  0  0  0  0  0
   -1.7766   -1.9468   -2.4688 C   0  0  0  0  0  0  0  0  0  0  0  0
   -2.8814    9.8422   -6.9504 H   0  0  0  0  0  0  0  0  0  0  0  0
   -3.3068   10.2391   -5.2682 H   0  0  0  0  0  0  0  0  0  0  0  0
   -1.6622   10.5586   -5.8695 H   0  0  0  0  0  0  0  0  0  0  0  0
   -1.2884    8.1225   -6.1419 H   0  0  0  0  0  0  0  0  0  0  0  0
   -2.9330    7.8030   -5.5407 H   0  0  0  0  0  0  0  0  0  0  0  0
   -2.3582    8.8933   -3.3890 H   0  0  0  0  0  0  0  0  0  0  0  0
   -0.7136    9.2128   -3.9903 H   0  0  0  0  0  0  0  0  0  0  0  0
   -0.3398    6.7767   -4.2628 H   0  0  0  0  0  0  0  0  0  0  0  0
   -1.9844    6.4571   -3.6615 H   0  0  0  0  0  0  0  0  0  0  0  0
    0.2908    6.9038    0.1665 H   0  0  0  0  0  0  0  0  0  0  0  0
    1.0644    4.7855    1.1529 H   0  0  0  0  0  0  0  0  0  0  0  0
    0.1448    2.7493   -2.4803 H   0  0  0  0  0  0  0  0  0  0  0  0
   -0.6411    4.8615   -3.4702 H   0  0  0  0  0  0  0  0  0  0  0  0
    3.3199    0.6267    1.0259 H   0  0  0  0  0  0  0  0  0  0  0  0
    4.1317    0.0475   -0.4389 H   0  0  0  0  0  0  0  0  0  0  0  0
    2.3029   -2.8036   -0.1849 H   0  0  0  0  0  0  0  0  0  0  0  0
   -0.9080   -2.4880    0.0141 H   0  0  0  0  0  0  0  0  0  0  0  0
   -3.4152   -1.3699    1.3456 H   0  0  0  0  0  0  0  0  0  0  0  0
   -3.0083   -3.1000    1.2496 H   0  0  0  0  0  0  0  0  0  0  0  0
   -2.2932   -2.1366    3.4197 H   0  0  0  0  0  0  0  0  0  0  0  0
   -0.8895   -2.6691    2.4635 H   0  0  0  0  0  0  0  0  0  0  0  0
   -1.2964   -0.9389    2.5595 H   0  0  0  0  0  0  0  0  0  0  0  0
   -3.0427   -3.0992   -1.1613 H   0  0  0  0  0  0  0  0  0  0  0  0
   -3.4522   -1.3689   -1.2444 H   0  0  0  0  0  0  0  0  0  0  0  0
   -2.3898   -2.1343   -3.3502 H   0  0  0  0  0  0  0  0  0  0  0  0
   -1.3689   -0.9371   -2.5180 H   0  0  0  0  0  0  0  0  0  0  0  0
   -0.9594   -2.6673   -2.4348 H   0  0  0  0  0  0  0  0  0  0  0  0
  1  2  1  0  0  0  0
  1 31  1  0  0  0  0
  1 32  1  0  0  0  0
  1 33  1  0  0  0  0
  2  3  1  0  0  0  0
  2 34  1  0  0  0  0
  2 35  1  0  0  0  0
  3  4  1  0  0  0  0
  3 36  1  0  0  0  0
  3 37  1  0  0  0  0
  4  5  1  0  0  0  0
  4 38  1  0  0  0  0
  4 39  1  0  0  0  0
  5  6  1  0  0  0  0
  6 11  2  0  0  0  0
  6  7  1  0  0  0  0
  7  8  2  0  0  0  0
  7 40  1  0  0  0  0
  8  9  1  0  0  0  0
  8 41  1  0  0  0  0
  9 10  2  0  0  0  0
  9 12  1  0  0  0  0
 10 11  1  0  0  0  0
 10 42  1  0  0  0  0
 11 43  1  0  0  0  0
 12 13  1  0  0  0  0
 12 24  1  0  0  0  0
 12 14  1  0  0  0  0
 14 20  2  0  0  0  0
 14 15  1  0  0  0  0
 15 16  2  0  0  0  0
 15 17  1  0  0  0  0
 17 18  1  0  0  0  0
 17 19  1  0  0  0  0
 19 20  1  0  0  0  0
 19 26  1  0  0  0  0
 20 21  1  0  0  0  0
 21 22  2  0  0  0  0
 22 23  1  0  0  0  0
 22 25  1  0  0  0  0
 23 24  1  0  0  0  0
 23 44  1  0  0  0  0
 23 45  1  0  0  0  0
 25 46  1  0  0  0  0
 26 27  1  0  0  0  0
 26 29  1  0  0  0  0
 26 47  1  0  0  0  0
 27 28  1  0  0  0  0
 27 48  1  0  0  0  0
 27 49  1  0  0  0  0
 28 50  1  0  0  0  0
 28 51  1  0  0  0  0
 28 52  1  0  0  0  0
 29 30  1  0  0  0  0
 29 53  1  0  0  0  0
 29 54  1  0  0  0  0
 30 55  1  0  0  0  0
 30 56  1  0  0  0  0
 30 57  1  0  0  0  0
M  END
$$$$
ZINC01864030
  -OEChem-08230709463D

 57 59  0     1  0  0  0  0  0999 V2000
   -0.0127    1.0858    0.0080 C   0  0  0  0  0  0  0  0  0  0  0  0
   -0.7288    1.5792    1.2668 C   0  0  0  0  0  0  0  0  0  0  0  0
   -2.1642    1.0497    1.2777 C   0  0  0  0  0  0  0  0  0  0  0  0
   -2.8804    1.5431    2.5365 C   0  0  0  0  0  0  0  0  0  0  0  0
   -4.2210    1.0484    2.5466 O   0  0  0  0  0  0  0  0  0  0  0  0
   -4.9993    1.3973    3.6046 C   0  0  0  0  0  0  0  0  0  0  0  0
   -4.4816    2.1944    4.6152 C   0  0  0  0  0  0  0  0  0  0  0  0
   -5.2765    2.5520    5.6870 C   0  0  0  0  0  0  0  0  0  0  0  0
   -6.5838    2.1074    5.7583 C   0  0  0  0  0  0  0  0  0  0  0  0
   -7.1003    1.3081    4.7553 C   0  0  0  0  0  0  0  0  0  0  0  0
   -6.3112    0.9521    3.6788 C   0  0  0  0  0  0  0  0  0  0  0  0
   -7.4469    2.4943    6.9316 C   0  0  2  0  0  0  0  0  0  0  0  0
   -8.4418    2.0723    6.7895 H   0  0  0  0  0  0  0  0  0  0  0  0
   -7.5578    3.9883    6.9780 C   0  0  0  0  0  0  0  0  0  0  0  0
   -7.4091    4.7933    5.8239 C   0  0  0  0  0  0  0  0  0  0  0  0
   -7.1774    4.3881    4.6978 O   0  0  0  0  0  0  0  0  0  0  0  0
   -7.5661    6.0777    6.1780 N   0  0  0  0  0  0  0  0  0  0  0  0
   -7.5149    6.8425    5.5835 H   0  0  0  0  0  0  0  0  0  0  0  0
   -7.8148    6.1222    7.5496 N   0  0  3  0  0  0  0  0  0  0  0  0
   -7.8037    4.8184    8.0413 C   0  0  0  0  0  0  0  0  0  0  0  0
   -8.0079    4.5678    9.3302 N   0  0  0  0  0  0  0  0  0  0  0  0
   -8.0426    3.5556   10.0734 C   0  0  0  0  0  0  0  0  0  0  0  0
   -7.9295    2.1210    9.7336 C   0  0  0  0  0  0  0  0  0  0  0  0
   -6.7348    1.8009    8.4279 S   0  0  0  0  0  0  0  0  0  0  0  0
   -8.2078    3.8176   11.3818 O   0  0  0  0  0  0  0  0  0  0  0  0
   -8.0476    7.3339    8.3395 C   0  0  0  0  0  0  0  0  0  0  0  0
   -6.8267    8.2505    8.2392 C   0  0  0  0  0  0  0  0  0  0  0  0
   -5.6219    7.5682    8.8903 C   0  0  0  0  0  0  0  0  0  0  0  0
   -9.2795    8.0646    7.8013 C   0  0  0  0  0  0  0  0  0  0  0  0
  -10.5213    7.1968    8.0157 C   0  0  0  0  0  0  0  0  0  0  0  0
    0.0021   -0.0041    0.0020 H   0  0  0  0  0  0  0  0  0  0  0  0
    1.0099    1.4631    0.0003 H   0  0  0  0  0  0  0  0  0  0  0  0
   -0.5399    1.4469   -0.8751 H   0  0  0  0  0  0  0  0  0  0  0  0
   -0.2017    1.2182    2.1499 H   0  0  0  0  0  0  0  0  0  0  0  0
   -0.7436    2.6691    1.2728 H   0  0  0  0  0  0  0  0  0  0  0  0
   -2.6914    1.4107    0.3946 H   0  0  0  0  0  0  0  0  0  0  0  0
   -2.1494   -0.0402    1.2717 H   0  0  0  0  0  0  0  0  0  0  0  0
   -2.3532    1.1820    3.4195 H   0  0  0  0  0  0  0  0  0  0  0  0
   -2.8951    2.6330    2.5425 H   0  0  0  0  0  0  0  0  0  0  0  0
   -3.4593    2.5385    4.5619 H   0  0  0  0  0  0  0  0  0  0  0  0
   -4.8751    3.1757    6.4720 H   0  0  0  0  0  0  0  0  0  0  0  0
   -8.1216    0.9615    4.8137 H   0  0  0  0  0  0  0  0  0  0  0  0
   -6.7150    0.3275    2.8958 H   0  0  0  0  0  0  0  0  0  0  0  0
   -7.6301    1.5714   10.6260 H   0  0  0  0  0  0  0  0  0  0  0  0
   -8.9053    1.7589    9.4100 H   0  0  0  0  0  0  0  0  0  0  0  0
   -8.2849    4.7471   11.6370 H   0  0  0  0  0  0  0  0  0  0  0  0
   -8.2131    7.0619    9.3819 H   0  0  0  0  0  0  0  0  0  0  0  0
   -6.6079    8.4507    7.1903 H   0  0  0  0  0  0  0  0  0  0  0  0
   -7.0340    9.1893    8.7527 H   0  0  0  0  0  0  0  0  0  0  0  0
   -5.8407    7.3680    9.9391 H   0  0  0  0  0  0  0  0  0  0  0  0
   -5.4146    6.6294    8.3767 H   0  0  0  0  0  0  0  0  0  0  0  0
   -4.7521    8.2212    8.8188 H   0  0  0  0  0  0  0  0  0  0  0  0
   -9.4011    9.0099    8.3302 H   0  0  0  0  0  0  0  0  0  0  0  0
   -9.1508    8.2580    6.7364 H   0  0  0  0  0  0  0  0  0  0  0  0
  -11.3988    7.7174    7.6323 H   0  0  0  0  0  0  0  0  0  0  0  0
  -10.3997    6.2515    7.4868 H   0  0  0  0  0  0  0  0  0  0  0  0
  -10.6499    7.0034    9.0806 H   0  0  0  0  0  0  0  0  0  0  0  0
  1  2  1  0  0  0  0
  1 31  1  0  0  0  0
  1 32  1  0  0  0  0
  1 33  1  0  0  0  0
  2  3  1  0  0  0  0
  2 34  1  0  0  0  0
  2 35  1  0  0  0  0
  3  4  1  0  0  0  0
  3 36  1  0  0  0  0
  3 37  1  0  0  0  0
  4  5  1  0  0  0  0
  4 38  1  0  0  0  0
  4 39  1  0  0  0  0
  5  6  1  0  0  0  0
  6 11  2  0  0  0  0
  6  7  1  0  0  0  0
  7  8  2  0  0  0  0
  7 40  1  0  0  0  0
  8  9  1  0  0  0  0
  8 41  1  0  0  0  0
  9 10  2  0  0  0  0
  9 12  1  0  0  0  0
 10 11  1  0  0  0  0
 10 42  1  0  0  0  0
 11 43  1  0  0  0  0
 12 13  1  0  0  0  0
 12 24  1  0  0  0  0
 12 14  1  0  0  0  0
 14 20  2  0  0  0  0
 14 15  1  0  0  0  0
 15 16  2  0  0  0  0
 15 17  1  0  0  0  0
 17 18  1  0  0  0  0
 17 19  1  0  0  0  0
 19 20  1  0  0  0  0
 19 26  1  0  0  0  0
 20 21  1  0  0  0  0
 21 22  2  0  0  0  0
 22 23  1  0  0  0  0
 22 25  1  0  0  0  0
 23 24  1  0  0  0  0
 23 44  1  0  0  0  0
 23 45  1  0  0  0  0
 25 46  1  0  0  0  0
 26 27  1  0  0  0  0
 26 29  1  0  0  0  0
 26 47  1  0  0  0  0
 27 28  1  0  0  0  0
 27 48  1  0  0  0  0
 27 49  1  0  0  0  0
 28 50  1  0  0  0  0
 28 51  1  0  0  0  0
 28 52  1  0  0  0  0
 29 30  1  0  0  0  0
 29 53  1  0  0  0  0
 29 54  1  0  0  0  0
 30 55  1  0  0  0  0
 30 56  1  0  0  0  0
 30 57  1  0  0  0  0
M  END
$$$$
ZINC01869274
  -OEChem-08230709463D

 55 56  0     1  0  0  0  0  0999 V2000
   -4.8052    9.8368   -0.3535 C   0  0  0  0  0  0  0  0  0  0  0  0
   -3.7955    8.6877   -0.3217 C   0  0  0  0  0  0  0  0  0  0  0  0
   -4.5405    7.3578   -0.1907 C   0  0  0  0  0  0  0  0  0  0  0  0
   -3.5308    6.2087   -0.1589 C   0  0  0  0  0  0  0  0  0  0  0  0
   -4.2757    4.8787   -0.0280 C   0  0  1  0  0  0  0  0  0  0  0  0
   -5.2142    4.7000   -1.2230 C   0  0  0  0  0  0  0  0  0  0  0  0
   -4.3981    4.7022   -2.5172 C   0  0  0  0  0  0  0  0  0  0  0  0
   -5.3225    4.5261   -3.6943 C   0  0  0  0  0  0  0  0  0  0  0  0
   -6.5120    4.4108   -3.5163 O   0  0  0  0  0  0  0  0  0  0  0  0
   -3.2812    3.7469    0.0034 C   0  0  0  0  0  0  0  0  0  0  0  0
   -3.4930    2.4130    0.1084 C   0  0  0  0  0  0  0  0  0  0  0  0
   -2.4473    1.6084    0.1140 N   0  0  0  0  0  0  0  0  0  0  0  0
   -1.2199    2.0833    0.0200 C   0  0  0  0  0  0  0  0  0  0  0  0
   -1.4969    3.7946   -0.0801 S   0  0  0  0  0  0  0  0  0  0  0  0
   -0.0169    1.3932    0.0097 N   0  0  0  0  0  0  0  0  0  0  0  0
   -0.0130   -0.0040   -0.0153 C   0  0  0  0  0  0  0  0  0  0  0  0
    1.0795   -0.7061    0.4780 C   0  0  0  0  0  0  0  0  0  0  0  0
    1.0780   -2.0869    0.4561 C   0  0  0  0  0  0  0  0  0  0  0  0
   -0.0052   -2.7706   -0.0653 C   0  0  0  0  0  0  0  0  0  0  0  0
   -1.0920   -2.0747   -0.5624 C   0  0  0  0  0  0  0  0  0  0  0  0
   -1.0993   -0.6939   -0.5388 C   0  0  0  0  0  0  0  0  0  0  0  0
   -0.0010   -4.2773   -0.0923 C   0  0  0  0  0  0  0  0  0  0  0  0
   -5.0795    4.8766    1.2468 C   0  0  0  0  0  0  0  0  0  0  0  0
   -6.2799    4.7455    1.2038 O   0  0  0  0  0  0  0  0  0  0  0  0
   -4.4619    5.0202    2.4299 O   0  0  0  0  0  0  0  0  0  0  0  0
   -5.2991    5.0087    3.6162 C   0  0  0  0  0  0  0  0  0  0  0  0
   -4.4246    5.1837    4.8593 C   0  0  0  0  0  0  0  0  0  0  0  0
   -5.4738    9.7095   -1.2049 H   0  0  0  0  0  0  0  0  0  0  0  0
   -5.3866    9.8353    0.5685 H   0  0  0  0  0  0  0  0  0  0  0  0
   -4.2745   10.7843   -0.4468 H   0  0  0  0  0  0  0  0  0  0  0  0
   -3.1269    8.8151    0.5297 H   0  0  0  0  0  0  0  0  0  0  0  0
   -3.2141    8.6893   -1.2437 H   0  0  0  0  0  0  0  0  0  0  0  0
   -5.2091    7.2305   -1.0421 H   0  0  0  0  0  0  0  0  0  0  0  0
   -5.1218    7.3562    0.7313 H   0  0  0  0  0  0  0  0  0  0  0  0
   -2.8621    6.3360    0.6925 H   0  0  0  0  0  0  0  0  0  0  0  0
   -2.9494    6.2102   -1.0809 H   0  0  0  0  0  0  0  0  0  0  0  0
   -5.7449    3.7525   -1.1297 H   0  0  0  0  0  0  0  0  0  0  0  0
   -5.9335    5.5186   -1.2457 H   0  0  0  0  0  0  0  0  0  0  0  0
   -3.8674    5.6497   -2.6105 H   0  0  0  0  0  0  0  0  0  0  0  0
   -3.6788    3.8835   -2.4945 H   0  0  0  0  0  0  0  0  0  0  0  0
   -4.4949    2.0172    0.1854 H   0  0  0  0  0  0  0  0  0  0  0  0
    0.8218    1.8805    0.0159 H   0  0  0  0  0  0  0  0  0  0  0  0
    1.9273   -0.1728    0.8819 H   0  0  0  0  0  0  0  0  0  0  0  0
    1.9251   -2.6335    0.8435 H   0  0  0  0  0  0  0  0  0  0  0  0
   -1.9361   -2.6117   -0.9692 H   0  0  0  0  0  0  0  0  0  0  0  0
   -1.9486   -0.1511   -0.9265 H   0  0  0  0  0  0  0  0  0  0  0  0
    0.4368   -4.6227   -1.0288 H   0  0  0  0  0  0  0  0  0  0  0  0
    0.5871   -4.6541    0.7445 H   0  0  0  0  0  0  0  0  0  0  0  0
   -1.0240   -4.6450   -0.0120 H   0  0  0  0  0  0  0  0  0  0  0  0
   -6.0192    5.8251    3.5606 H   0  0  0  0  0  0  0  0  0  0  0  0
   -5.8306    4.0589    3.6766 H   0  0  0  0  0  0  0  0  0  0  0  0
   -5.0530    5.1751    5.7498 H   0  0  0  0  0  0  0  0  0  0  0  0
   -3.7045    4.3673    4.9148 H   0  0  0  0  0  0  0  0  0  0  0  0
   -3.8931    6.1335    4.7989 H   0  0  0  0  0  0  0  0  0  0  0  0
   -4.8245    4.4975   -4.9404 O   0  5  0  0  0  0  0  0  0  0  0  0
  1  2  1  0  0  0  0
  1 28  1  0  0  0  0
  1 29  1  0  0  0  0
  1 30  1  0  0  0  0
  2  3  1  0  0  0  0
  2 31  1  0  0  0  0
  2 32  1  0  0  0  0
  3  4  1  0  0  0  0
  3 33  1  0  0  0  0
  3 34  1  0  0  0  0
  4  5  1  0  0  0  0
  4 35  1  0  0  0  0
  4 36  1  0  0  0  0
  5  6  1  0  0  0  0
  5 10  1  0  0  0  0
  5 23  1  0  0  0  0
  6  7  1  0  0  0  0
  6 37  1  0  0  0  0
  6 38  1  0  0  0  0
  7  8  1  0  0  0  0
  7 39  1  0  0  0  0
  7 40  1  0  0  0  0
  8  9  2  0  0  0  0
  8 55  1  0  0  0  0
 10 14  1  0  0  0  0
 10 11  2  0  0  0  0
 11 12  1  0  0  0  0
 11 41  1  0  0  0  0
 12 13  2  0  0  0  0
 13 14  1  0  0  0  0
 13 15  1  0  0  0  0
 15 16  1  0  0  0  0
 15 42  1  0  0  0  0
 16 21  2  0  0  0  0
 16 17  1  0  0  0  0
 17 18  2  0  0  0  0
 17 43  1  0  0  0  0
 18 19  1  0  0  0  0
 18 44  1  0  0  0  0
 19 20  2  0  0  0  0
 19 22  1  0  0  0  0
 20 21  1  0  0  0  0
 20 45  1  0  0  0  0
 21 46  1  0  0  0  0
 22 47  1  0  0  0  0
 22 48  1  0  0  0  0
 22 49  1  0  0  0  0
 23 24  2  0  0  0  0
 23 25  1  0  0  0  0
 25 26  1  0  0  0  0
 26 27  1  0  0  0  0
 26 50  1  0  0  0  0
 26 51  1  0  0  0  0
 27 52  1  0  0  0  0
 27 53  1  0  0  0  0
 27 54  1  0  0  0  0
M  CHG  1  55  -1
M  END
$$$$
ZINC01873734
  -OEChem-08230709463D

 54 56  0     1  0  0  0  0  0999 V2000
    6.8635    2.0663   -7.7016 C   0  0  0  0  0  0  0  0  0  0  0  0
    6.9339    3.0251   -6.5113 C   0  0  0  0  0  0  0  0  0  0  0  0
    5.8224    2.6853   -5.5163 C   0  0  0  0  0  0  0  0  0  0  0  0
    5.8928    3.6441   -4.3260 C   0  0  1  0  0  0  0  0  0  0  0  0
    6.8914    3.6099   -3.8905 H   0  0  0  0  0  0  0  0  0  0  0  0
    5.5913    5.0675   -4.7992 C   0  0  0  0  0  0  0  0  0  0  0  0
    4.9067    3.2452   -3.3186 N   0  0  0  0  0  0  0  0  0  0  0  0
    5.1834    2.8802   -2.0172 C   0  0  0  0  0  0  0  0  0  0  0  0
    3.9817    2.6017   -1.4242 C   0  0  0  0  0  0  0  0  0  0  0  0
    2.9725    2.7888   -2.3917 C   0  0  0  0  0  0  0  0  0  0  0  0
    3.5275    3.1692   -3.5108 N   0  0  0  0  0  0  0  0  0  0  0  0
    1.6402    2.6035   -2.1918 O   0  0  0  0  0  0  0  0  0  0  0  0
    3.6820    2.1720   -0.0200 C   0  0  2  0  0  0  0  0  0  0  0  0
    3.5681    3.0604    0.6012 H   0  0  0  0  0  0  0  0  0  0  0  0
    4.9711    1.1362    0.6811 S   0  0  0  0  0  0  0  0  0  0  0  0
    6.4188    2.1914    0.8351 C   0  0  0  0  0  0  0  0  0  0  0  0
    7.0059    2.5660   -0.4685 C   0  0  0  0  0  0  0  0  0  0  0  0
    6.4435    2.8446   -1.5523 N   0  0  0  0  0  0  0  0  0  0  0  0
    8.3535    2.6159   -0.4948 O   0  0  0  0  0  0  0  0  0  0  0  0
    2.3846    1.4052   -0.0127 C   0  0  0  0  0  0  0  0  0  0  0  0
    2.3980    0.0237   -0.0207 C   0  0  0  0  0  0  0  0  0  0  0  0
    1.2082   -0.6803   -0.0131 C   0  0  0  0  0  0  0  0  0  0  0  0
    0.0021   -0.0041    0.0020 C   0  0  0  0  0  0  0  0  0  0  0  0
   -0.0167    1.3770    0.0096 C   0  0  0  0  0  0  0  0  0  0  0  0
    1.1761    2.0859    0.0020 C   0  0  0  0  0  0  0  0  0  0  0  0
    1.1603    3.4448    0.0099 O   0  0  0  0  0  0  0  0  0  0  0  0
   -0.1203    4.0786    0.0260 C   0  0  0  0  0  0  0  0  0  0  0  0
    0.0625    5.5976    0.0329 C   0  0  0  0  0  0  0  0  0  0  0  0
   -1.3086    6.2763    0.0501 C   0  0  0  0  0  0  0  0  0  0  0  0
    7.6553    2.3084   -8.4104 H   0  0  0  0  0  0  0  0  0  0  0  0
    6.9902    1.0420   -7.3510 H   0  0  0  0  0  0  0  0  0  0  0  0
    5.8947    2.1655   -8.1912 H   0  0  0  0  0  0  0  0  0  0  0  0
    6.8071    4.0494   -6.8618 H   0  0  0  0  0  0  0  0  0  0  0  0
    7.9026    2.9259   -6.0217 H   0  0  0  0  0  0  0  0  0  0  0  0
    5.9491    1.6610   -5.1658 H   0  0  0  0  0  0  0  0  0  0  0  0
    4.8536    2.7845   -6.0059 H   0  0  0  0  0  0  0  0  0  0  0  0
    6.3249    5.3643   -5.5487 H   0  0  0  0  0  0  0  0  0  0  0  0
    4.5926    5.1017   -5.2347 H   0  0  0  0  0  0  0  0  0  0  0  0
    5.6414    5.7505   -3.9512 H   0  0  0  0  0  0  0  0  0  0  0  0
    1.3352    1.7057   -2.3815 H   0  0  0  0  0  0  0  0  0  0  0  0
    6.1349    3.1003    1.3657 H   0  0  0  0  0  0  0  0  0  0  0  0
    7.1734    1.6675    1.4217 H   0  0  0  0  0  0  0  0  0  0  0  0
    8.7675    2.8583   -1.3344 H   0  0  0  0  0  0  0  0  0  0  0  0
    3.3387   -0.5068   -0.0325 H   0  0  0  0  0  0  0  0  0  0  0  0
    1.2208   -1.7602   -0.0187 H   0  0  0  0  0  0  0  0  0  0  0  0
   -0.9261   -0.5563    0.0076 H   0  0  0  0  0  0  0  0  0  0  0  0
   -0.9589    1.9047    0.0170 H   0  0  0  0  0  0  0  0  0  0  0  0
   -0.6825    3.7843   -0.8602 H   0  0  0  0  0  0  0  0  0  0  0  0
   -0.6652    3.7742    0.9196 H   0  0  0  0  0  0  0  0  0  0  0  0
    0.6247    5.8919    0.9191 H   0  0  0  0  0  0  0  0  0  0  0  0
    0.6074    5.9021   -0.8607 H   0  0  0  0  0  0  0  0  0  0  0  0
   -1.8535    5.9719    0.9437 H   0  0  0  0  0  0  0  0  0  0  0  0
   -1.1784    7.3585    0.0550 H   0  0  0  0  0  0  0  0  0  0  0  0
   -1.8708    5.9820   -0.8361 H   0  0  0  0  0  0  0  0  0  0  0  0
  1  2  1  0  0  0  0
  1 30  1  0  0  0  0
  1 31  1  0  0  0  0
  1 32  1  0  0  0  0
  2  3  1  0  0  0  0
  2 33  1  0  0  0  0
  2 34  1  0  0  0  0
  3  4  1  0  0  0  0
  3 35  1  0  0  0  0
  3 36  1  0  0  0  0
  4  5  1  0  0  0  0
  4  6  1  0  0  0  0
  4  7  1  0  0  0  0
  6 37  1  0  0  0  0
  6 38  1  0  0  0  0
  6 39  1  0  0  0  0
  7 11  1  0  0  0  0
  7  8  1  0  0  0  0
  8 18  1  0  0  0  0
  8  9  2  0  0  0  0
  9 10  1  0  0  0  0
  9 13  1  0  0  0  0
 10 11  2  0  0  0  0
 10 12  1  0  0  0  0
 12 40  1  0  0  0  0
 13 14  1  0  0  0  0
 13 15  1  0  0  0  0
 13 20  1  0  0  0  0
 15 16  1  0  0  0  0
 16 17  1  0  0  0  0
 16 41  1  0  0  0  0
 16 42  1  0  0  0  0
 17 18  2  0  0  0  0
 17 19  1  0  0  0  0
 19 43  1  0  0  0  0
 20 25  2  0  0  0  0
 20 21  1  0  0  0  0
 21 22  2  0  0  0  0
 21 44  1  0  0  0  0
 22 23  1  0  0  0  0
 22 45  1  0  0  0  0
 23 24  2  0  0  0  0
 23 46  1  0  0  0  0
 24 25  1  0  0  0  0
 24 47  1  0  0  0  0
 25 26  1  0  0  0  0
 26 27  1  0  0  0  0
 27 28  1  0  0  0  0
 27 48  1  0  0  0  0
 27 49  1  0  0  0  0
 28 29  1  0  0  0  0
 28 50  1  0  0  0  0
 28 51  1  0  0  0  0
 29 52  1  0  0  0  0
 29 53  1  0  0  0  0
 29 54  1  0  0  0  0
M  END
$$$$
ZINC01873735
  -OEChem-08230709463D

 54 56  0     1  0  0  0  0  0999 V2000
   -0.7288    1.5792    1.2668 C   0  0  0  0  0  0  0  0  0  0  0  0
   -0.0127    1.0858    0.0080 C   0  0  0  0  0  0  0  0  0  0  0  0
   -0.7527    1.5927   -1.2315 C   0  0  0  0  0  0  0  0  0  0  0  0
   -0.0366    1.0992   -2.4903 C   0  0  2  0  0  0  0  0  0  0  0  0
    0.0568    0.0139   -2.4534 H   0  0  0  0  0  0  0  0  0  0  0  0
    1.3560    1.7287   -2.5647 C   0  0  0  0  0  0  0  0  0  0  0  0
   -0.8097    1.4829   -3.6741 N   0  0  0  0  0  0  0  0  0  0  0  0
   -1.3432    0.6170   -4.6063 C   0  0  0  0  0  0  0  0  0  0  0  0
   -1.9906    1.3885   -5.5330 C   0  0  0  0  0  0  0  0  0  0  0  0
   -1.8333    2.7377   -5.1527 C   0  0  0  0  0  0  0  0  0  0  0  0
   -1.1377    2.7856   -4.0486 N   0  0  0  0  0  0  0  0  0  0  0  0
   -2.3293    3.8120   -5.8229 O   0  0  0  0  0  0  0  0  0  0  0  0
   -2.7562    0.9803   -6.7552 C   0  0  2  0  0  0  0  0  0  0  0  0
   -3.7907    0.7864   -6.4717 H   0  0  0  0  0  0  0  0  0  0  0  0
   -2.0845   -0.4903   -7.5379 S   0  0  0  0  0  0  0  0  0  0  0  0
   -2.3522   -1.8324   -6.3717 C   0  0  0  0  0  0  0  0  0  0  0  0
   -1.5136   -1.7247   -5.1596 C   0  0  0  0  0  0  0  0  0  0  0  0
   -1.1739   -0.7122   -4.5053 N   0  0  0  0  0  0  0  0  0  0  0  0
   -1.0415   -2.8959   -4.6857 O   0  0  0  0  0  0  0  0  0  0  0  0
   -2.7291    2.1144   -7.7471 C   0  0  0  0  0  0  0  0  0  0  0  0
   -1.8187    2.1024   -8.7864 C   0  0  0  0  0  0  0  0  0  0  0  0
   -1.7934    3.1425   -9.6967 C   0  0  0  0  0  0  0  0  0  0  0  0
   -2.6789    4.1971   -9.5700 C   0  0  0  0  0  0  0  0  0  0  0  0
   -3.5909    4.2138   -8.5328 C   0  0  0  0  0  0  0  0  0  0  0  0
   -3.6219    3.1685   -7.6209 C   0  0  0  0  0  0  0  0  0  0  0  0
   -4.5220    3.1799   -6.6028 O   0  0  0  0  0  0  0  0  0  0  0  0
   -5.4105    4.2970   -6.5348 C   0  0  0  0  0  0  0  0  0  0  0  0
   -6.3429    4.1347   -5.3327 C   0  0  0  0  0  0  0  0  0  0  0  0
   -7.2942    5.3307   -5.2599 C   0  0  0  0  0  0  0  0  0  0  0  0
   -0.7436    2.6691    1.2728 H   0  0  0  0  0  0  0  0  0  0  0  0
   -1.7514    1.2020    1.2746 H   0  0  0  0  0  0  0  0  0  0  0  0
   -0.2017    1.2182    2.1499 H   0  0  0  0  0  0  0  0  0  0  0  0
    0.0021   -0.0041    0.0020 H   0  0  0  0  0  0  0  0  0  0  0  0
    1.0099    1.4631    0.0003 H   0  0  0  0  0  0  0  0  0  0  0  0
   -1.7753    1.2154   -1.2238 H   0  0  0  0  0  0  0  0  0  0  0  0
   -0.7675    2.6825   -1.2255 H   0  0  0  0  0  0  0  0  0  0  0  0
    1.9312    1.4432   -1.6839 H   0  0  0  0  0  0  0  0  0  0  0  0
    1.8662    1.3771   -3.4615 H   0  0  0  0  0  0  0  0  0  0  0  0
    1.2626    2.8140   -2.6016 H   0  0  0  0  0  0  0  0  0  0  0  0
   -3.2163    4.0756   -5.5421 H   0  0  0  0  0  0  0  0  0  0  0  0
   -2.1307   -2.7772   -6.8681 H   0  0  0  0  0  0  0  0  0  0  0  0
   -3.4006   -1.8335   -6.0735 H   0  0  0  0  0  0  0  0  0  0  0  0
   -0.4890   -2.8580   -3.8930 H   0  0  0  0  0  0  0  0  0  0  0  0
   -1.1261    1.2799   -8.8875 H   0  0  0  0  0  0  0  0  0  0  0  0
   -1.0810    3.1313  -10.5084 H   0  0  0  0  0  0  0  0  0  0  0  0
   -2.6571    5.0085  -10.2825 H   0  0  0  0  0  0  0  0  0  0  0  0
   -4.2820    5.0378   -8.4341 H   0  0  0  0  0  0  0  0  0  0  0  0
   -4.8327    5.2147   -6.4252 H   0  0  0  0  0  0  0  0  0  0  0  0
   -6.0018    4.3470   -7.4491 H   0  0  0  0  0  0  0  0  0  0  0  0
   -6.9207    3.2170   -5.4424 H   0  0  0  0  0  0  0  0  0  0  0  0
   -5.7516    4.0846   -4.4184 H   0  0  0  0  0  0  0  0  0  0  0  0
   -6.7164    6.2484   -5.1503 H   0  0  0  0  0  0  0  0  0  0  0  0
   -7.8855    5.3808   -6.1742 H   0  0  0  0  0  0  0  0  0  0  0  0
   -7.9585    5.2151   -4.4035 H   0  0  0  0  0  0  0  0  0  0  0  0
  1  2  1  0  0  0  0
  1 30  1  0  0  0  0
  1 31  1  0  0  0  0
  1 32  1  0  0  0  0
  2  3  1  0  0  0  0
  2 33  1  0  0  0  0
  2 34  1  0  0  0  0
  3  4  1  0  0  0  0
  3 35  1  0  0  0  0
  3 36  1  0  0  0  0
  4  5  1  0  0  0  0
  4  6  1  0  0  0  0
  4  7  1  0  0  0  0
  6 37  1  0  0  0  0
  6 38  1  0  0  0  0
  6 39  1  0  0  0  0
  7 11  1  0  0  0  0
  7  8  1  0  0  0  0
  8 18  1  0  0  0  0
  8  9  2  0  0  0  0
  9 10  1  0  0  0  0
  9 13  1  0  0  0  0
 10 11  2  0  0  0  0
 10 12  1  0  0  0  0
 12 40  1  0  0  0  0
 13 14  1  0  0  0  0
 13 15  1  0  0  0  0
 13 20  1  0  0  0  0
 15 16  1  0  0  0  0
 16 17  1  0  0  0  0
 16 41  1  0  0  0  0
 16 42  1  0  0  0  0
 17 18  2  0  0  0  0
 17 19  1  0  0  0  0
 19 43  1  0  0  0  0
 20 25  2  0  0  0  0
 20 21  1  0  0  0  0
 21 22  2  0  0  0  0
 21 44  1  0  0  0  0
 22 23  1  0  0  0  0
 22 45  1  0  0  0  0
 23 24  2  0  0  0  0
 23 46  1  0  0  0  0
 24 25  1  0  0  0  0
 24 47  1  0  0  0  0
 25 26  1  0  0  0  0
 26 27  1  0  0  0  0
 27 28  1  0  0  0  0
 27 48  1  0  0  0  0
 27 49  1  0  0  0  0
 28 29  1  0  0  0  0
 28 50  1  0  0  0  0
 28 51  1  0  0  0  0
 29 52  1  0  0  0  0
 29 53  1  0  0  0  0
 29 54  1  0  0  0  0
M  END
$$$$
ZINC01873736
  -OEChem-08230709463D

 54 56  0     1  0  0  0  0  0999 V2000
   -4.0785    2.6157   -2.5261 C   0  0  0  0  0  0  0  0  0  0  0  0
   -3.2401    2.9065   -1.2797 C   0  0  0  0  0  0  0  0  0  0  0  0
   -2.0540    1.9415   -1.2263 C   0  0  0  0  0  0  0  0  0  0  0  0
   -1.2157    2.2324    0.0202 C   0  0  1  0  0  0  0  0  0  0  0  0
   -0.9225    3.2822    0.0240 H   0  0  0  0  0  0  0  0  0  0  0  0
   -2.0411    1.9289    1.2721 C   0  0  0  0  0  0  0  0  0  0  0  0
   -0.0168    1.3905    0.0097 N   0  0  0  0  0  0  0  0  0  0  0  0
    1.2871    1.8411   -0.0003 C   0  0  0  0  0  0  0  0  0  0  0  0
    2.0860    0.7304   -0.0232 C   0  0  0  0  0  0  0  0  0  0  0  0
    1.2454   -0.4025   -0.0186 C   0  0  0  0  0  0  0  0  0  0  0  0
    0.0021   -0.0041    0.0020 N   0  0  0  0  0  0  0  0  0  0  0  0
    1.6616   -1.6970   -0.0329 O   0  0  0  0  0  0  0  0  0  0  0  0
    3.5808    0.6236   -0.0539 C   0  0  1  0  0  0  0  0  0  0  0  0
    3.9142    0.6527   -1.0912 H   0  0  0  0  0  0  0  0  0  0  0  0
    4.3913    1.9475    0.8500 S   0  0  0  0  0  0  0  0  0  0  0  0
    4.0299    3.4556   -0.0598 C   0  0  0  0  0  0  0  0  0  0  0  0
    2.6103    3.8578    0.0227 C   0  0  0  0  0  0  0  0  0  0  0  0
    1.5746    3.1536    0.0214 N   0  0  0  0  0  0  0  0  0  0  0  0
    2.3974    5.1867    0.1127 O   0  0  0  0  0  0  0  0  0  0  0  0
    3.9865   -0.6964    0.5495 C   0  0  0  0  0  0  0  0  0  0  0  0
    4.2144   -1.7884   -0.2657 C   0  0  0  0  0  0  0  0  0  0  0  0
    4.5865   -2.9996    0.2872 C   0  0  0  0  0  0  0  0  0  0  0  0
    4.7321   -3.1214    1.6570 C   0  0  0  0  0  0  0  0  0  0  0  0
    4.5063   -2.0325    2.4762 C   0  0  0  0  0  0  0  0  0  0  0  0
    4.1369   -0.8146    1.9234 C   0  0  0  0  0  0  0  0  0  0  0  0
    3.9188    0.2595    2.7269 O   0  0  0  0  0  0  0  0  0  0  0  0
    4.0925    0.0645    4.1319 C   0  0  0  0  0  0  0  0  0  0  0  0
    3.8053    1.3747    4.8679 C   0  0  0  0  0  0  0  0  0  0  0  0
    3.9912    1.1660    6.3721 C   0  0  0  0  0  0  0  0  0  0  0  0
   -3.4633    2.7465   -3.4164 H   0  0  0  0  0  0  0  0  0  0  0  0
   -4.4458    1.5903   -2.4858 H   0  0  0  0  0  0  0  0  0  0  0  0
   -4.9235    3.3032   -2.5642 H   0  0  0  0  0  0  0  0  0  0  0  0
   -3.8553    2.7757   -0.3894 H   0  0  0  0  0  0  0  0  0  0  0  0
   -2.8728    3.9319   -1.3200 H   0  0  0  0  0  0  0  0  0  0  0  0
   -1.4389    2.0723   -2.1165 H   0  0  0  0  0  0  0  0  0  0  0  0
   -2.4214    0.9161   -1.1859 H   0  0  0  0  0  0  0  0  0  0  0  0
   -1.4439    2.1360    2.1601 H   0  0  0  0  0  0  0  0  0  0  0  0
   -2.9331    2.5553    1.2799 H   0  0  0  0  0  0  0  0  0  0  0  0
   -2.3344    0.8791    1.2683 H   0  0  0  0  0  0  0  0  0  0  0  0
    1.7695   -2.0657   -0.9204 H   0  0  0  0  0  0  0  0  0  0  0  0
    4.6461    4.2615    0.3389 H   0  0  0  0  0  0  0  0  0  0  0  0
    4.2908    3.3039   -1.1072 H   0  0  0  0  0  0  0  0  0  0  0  0
    1.4780    5.4812    0.1682 H   0  0  0  0  0  0  0  0  0  0  0  0
    4.1013   -1.6958   -1.3358 H   0  0  0  0  0  0  0  0  0  0  0  0
    4.7635   -3.8521   -0.3517 H   0  0  0  0  0  0  0  0  0  0  0  0
    5.0229   -4.0686    2.0865 H   0  0  0  0  0  0  0  0  0  0  0  0
    4.6205   -2.1280    3.5459 H   0  0  0  0  0  0  0  0  0  0  0  0
    3.4043   -0.7059    4.4796 H   0  0  0  0  0  0  0  0  0  0  0  0
    5.1177   -0.2471    4.3314 H   0  0  0  0  0  0  0  0  0  0  0  0
    4.4934    2.1452    4.5202 H   0  0  0  0  0  0  0  0  0  0  0  0
    2.7800    1.6864    4.6683 H   0  0  0  0  0  0  0  0  0  0  0  0
    3.3031    0.3956    6.7199 H   0  0  0  0  0  0  0  0  0  0  0  0
    5.0165    0.8544    6.5717 H   0  0  0  0  0  0  0  0  0  0  0  0
    3.7866    2.0995    6.8965 H   0  0  0  0  0  0  0  0  0  0  0  0
  1  2  1  0  0  0  0
  1 30  1  0  0  0  0
  1 31  1  0  0  0  0
  1 32  1  0  0  0  0
  2  3  1  0  0  0  0
  2 33  1  0  0  0  0
  2 34  1  0  0  0  0
  3  4  1  0  0  0  0
  3 35  1  0  0  0  0
  3 36  1  0  0  0  0
  4  5  1  0  0  0  0
  4  6  1  0  0  0  0
  4  7  1  0  0  0  0
  6 37  1  0  0  0  0
  6 38  1  0  0  0  0
  6 39  1  0  0  0  0
  7 11  1  0  0  0  0
  7  8  1  0  0  0  0
  8 18  1  0  0  0  0
  8  9  2  0  0  0  0
  9 10  1  0  0  0  0
  9 13  1  0  0  0  0
 10 11  2  0  0  0  0
 10 12  1  0  0  0  0
 12 40  1  0  0  0  0
 13 14  1  0  0  0  0
 13 15  1  0  0  0  0
 13 20  1  0  0  0  0
 15 16  1  0  0  0  0
 16 17  1  0  0  0  0
 16 41  1  0  0  0  0
 16 42  1  0  0  0  0
 17 18  2  0  0  0  0
 17 19  1  0  0  0  0
 19 43  1  0  0  0  0
 20 25  2  0  0  0  0
 20 21  1  0  0  0  0
 21 22  2  0  0  0  0
 21 44  1  0  0  0  0
 22 23  1  0  0  0  0
 22 45  1  0  0  0  0
 23 24  2  0  0  0  0
 23 46  1  0  0  0  0
 24 25  1  0  0  0  0
 24 47  1  0  0  0  0
 25 26  1  0  0  0  0
 26 27  1  0  0  0  0
 27 28  1  0  0  0  0
 27 48  1  0  0  0  0
 27 49  1  0  0  0  0
 28 29  1  0  0  0  0
 28 50  1  0  0  0  0
 28 51  1  0  0  0  0
 29 52  1  0  0  0  0
 29 53  1  0  0  0  0
 29 54  1  0  0  0  0
M  END
$$$$
ZINC01878812
  -OEChem-08230709463D

 54 56  0     1  0  0  0  0  0999 V2000
   -0.9093    4.9509    0.0375 C   0  0  0  0  0  0  0  0  0  0  0  0
   -0.2990    4.5560   -1.2825 C   0  0  0  0  0  0  0  0  0  0  0  0
    0.7539    3.7595   -1.3112 C   0  0  0  0  0  0  0  0  0  0  0  0
    1.2699    3.1465   -0.0349 C   0  0  1  0  0  0  0  0  0  0  0  0
    0.6022    3.4415    0.7746 H   0  0  0  0  0  0  0  0  0  0  0  0
    1.2036    1.6380   -0.1754 C   0  0  0  0  0  0  0  0  0  0  0  0
    2.3153    0.9615   -0.0415 N   0  0  0  0  0  0  0  0  0  0  0  0
    3.4919    1.5480    0.2014 C   0  0  0  0  0  0  0  0  0  0  0  0
    4.4689    0.8305    0.3041 O   0  0  0  0  0  0  0  0  0  0  0  0
    3.6729    2.8668    0.3449 N   0  0  0  0  0  0  0  0  0  0  0  0
    2.6408    3.7339    0.2458 C   0  0  0  0  0  0  0  0  0  0  0  0
    2.8030    4.9284    0.3759 O   0  0  0  0  0  0  0  0  0  0  0  0
    4.9611    3.3592    0.6032 C   0  0  0  0  0  0  0  0  0  0  0  0
    5.5868    3.0690    1.8079 C   0  0  0  0  0  0  0  0  0  0  0  0
    6.8563    3.5501    2.0598 C   0  0  0  0  0  0  0  0  0  0  0  0
    7.5025    4.3319    1.1133 C   0  0  0  0  0  0  0  0  0  0  0  0
    6.8757    4.6262   -0.0889 C   0  0  0  0  0  0  0  0  0  0  0  0
    5.6081    4.1415   -0.3437 C   0  0  0  0  0  0  0  0  0  0  0  0
    8.7502    4.8101    1.3641 O   0  0  0  0  0  0  0  0  0  0  0  0
    9.3354    4.4680    2.6221 C   0  0  0  0  0  0  0  0  0  0  0  0
    0.0399    1.0159   -0.4239 O   0  0  0  0  0  0  0  0  0  0  0  0
    1.3857    3.4868   -2.5177 N   0  0  0  0  0  0  0  0  0  0  0  0
    0.9907    4.1582   -3.6833 C   0  0  0  0  0  0  0  0  0  0  0  0
    0.3742    3.4603   -4.7115 C   0  0  0  0  0  0  0  0  0  0  0  0
   -0.0208    4.1234   -5.8579 C   0  0  0  0  0  0  0  0  0  0  0  0
    0.2092    5.4850   -5.9883 C   0  0  0  0  0  0  0  0  0  0  0  0
    0.8303    6.1861   -4.9655 C   0  0  0  0  0  0  0  0  0  0  0  0
    1.2219    5.5259   -3.8127 C   0  0  0  0  0  0  0  0  0  0  0  0
    1.8315    6.2115   -2.8089 O   0  0  0  0  0  0  0  0  0  0  0  0
    2.0362    7.6113   -3.0104 C   0  0  0  0  0  0  0  0  0  0  0  0
   -0.1752    6.1333   -7.1201 O   0  0  0  0  0  0  0  0  0  0  0  0
   -0.8093    5.3498   -8.1331 C   0  0  0  0  0  0  0  0  0  0  0  0
   -1.2406    4.0574    0.5666 H   0  0  0  0  0  0  0  0  0  0  0  0
   -0.1664    5.4748    0.6390 H   0  0  0  0  0  0  0  0  0  0  0  0
   -1.7623    5.6064   -0.1381 H   0  0  0  0  0  0  0  0  0  0  0  0
   -0.7228    4.9243   -2.2051 H   0  0  0  0  0  0  0  0  0  0  0  0
    5.0820    2.4641    2.5467 H   0  0  0  0  0  0  0  0  0  0  0  0
    7.3448    3.3210    2.9954 H   0  0  0  0  0  0  0  0  0  0  0  0
    7.3792    5.2348   -0.8254 H   0  0  0  0  0  0  0  0  0  0  0  0
    5.1203    4.3707   -1.2796 H   0  0  0  0  0  0  0  0  0  0  0  0
    9.4155    3.3839    2.7027 H   0  0  0  0  0  0  0  0  0  0  0  0
   10.3282    4.9121    2.6937 H   0  0  0  0  0  0  0  0  0  0  0  0
    8.7087    4.8470    3.4294 H   0  0  0  0  0  0  0  0  0  0  0  0
    0.0651    0.0525   -0.5023 H   0  0  0  0  0  0  0  0  0  0  0  0
    2.1003    2.8319   -2.5537 H   0  0  0  0  0  0  0  0  0  0  0  0
    0.1988    2.3990   -4.6142 H   0  0  0  0  0  0  0  0  0  0  0  0
   -0.5050    3.5795   -6.6556 H   0  0  0  0  0  0  0  0  0  0  0  0
    1.0089    7.2462   -5.0680 H   0  0  0  0  0  0  0  0  0  0  0  0
    2.6605    7.7642   -3.8907 H   0  0  0  0  0  0  0  0  0  0  0  0
    1.0740    8.1017   -3.1578 H   0  0  0  0  0  0  0  0  0  0  0  0
    2.5302    8.0358   -2.1364 H   0  0  0  0  0  0  0  0  0  0  0  0
   -1.0643    5.9876   -8.9794 H   0  0  0  0  0  0  0  0  0  0  0  0
   -0.1303    4.5633   -8.4623 H   0  0  0  0  0  0  0  0  0  0  0  0
   -1.7172    4.9008   -7.7301 H   0  0  0  0  0  0  0  0  0  0  0  0
  1  2  1  0  0  0  0
  1 33  1  0  0  0  0
  1 34  1  0  0  0  0
  1 35  1  0  0  0  0
  2  3  2  0  0  0  0
  2 36  1  0  0  0  0
  3  4  1  0  0  0  0
  3 22  1  0  0  0  0
  4  5  1  0  0  0  0
  4 11  1  0  0  0  0
  4  6  1  0  0  0  0
  6  7  2  0  0  0  0
  6 21  1  0  0  0  0
  7  8  1  0  0  0  0
  8  9  2  0  0  0  0
  8 10  1  0  0  0  0
 10 11  1  0  0  0  0
 10 13  1  0  0  0  0
 11 12  2  0  0  0  0
 13 18  2  0  0  0  0
 13 14  1  0  0  0  0
 14 15  2  0  0  0  0
 14 37  1  0  0  0  0
 15 16  1  0  0  0  0
 15 38  1  0  0  0  0
 16 17  2  0  0  0  0
 16 19  1  0  0  0  0
 17 18  1  0  0  0  0
 17 39  1  0  0  0  0
 18 40  1  0  0  0  0
 19 20  1  0  0  0  0
 20 41  1  0  0  0  0
 20 42  1  0  0  0  0
 20 43  1  0  0  0  0
 21 44  1  0  0  0  0
 22 23  1  0  0  0  0
 22 45  1  0  0  0  0
 23 28  2  0  0  0  0
 23 24  1  0  0  0  0
 24 25  2  0  0  0  0
 24 46  1  0  0  0  0
 25 26  1  0  0  0  0
 25 47  1  0  0  0  0
 26 27  2  0  0  0  0
 26 31  1  0  0  0  0
 27 28  1  0  0  0  0
 27 48  1  0  0  0  0
 28 29  1  0  0  0  0
 29 30  1  0  0  0  0
 30 49  1  0  0  0  0
 30 50  1  0  0  0  0
 30 51  1  0  0  0  0
 31 32  1  0  0  0  0
 32 52  1  0  0  0  0
 32 53  1  0  0  0  0
 32 54  1  0  0  0  0
M  END
$$$$
ZINC01894033
  -OEChem-08230709463D

 52 53  0     0  0  0  0  0  0999 V2000
    9.4547    1.5479   -0.5926 C   0  0  0  0  0  0  0  0  0  0  0  0
    9.7308    0.0434   -0.6260 C   0  0  0  0  0  0  0  0  0  0  0  0
   10.6495   -0.3325    0.5383 C   0  0  0  0  0  0  0  0  0  0  0  0
   10.4082   -0.3216   -1.9484 C   0  0  0  0  0  0  0  0  0  0  0  0
    8.4307   -0.7088   -0.5031 C   0  0  0  0  0  0  0  0  0  0  0  0
    7.2435   -0.0163   -0.3848 C   0  0  0  0  0  0  0  0  0  0  0  0
    6.0401   -0.7147   -0.2716 C   0  0  0  0  0  0  0  0  0  0  0  0
    6.0475   -2.1106   -0.2730 C   0  0  0  0  0  0  0  0  0  0  0  0
    7.2413   -2.7907   -0.3977 C   0  0  0  0  0  0  0  0  0  0  0  0
    8.4305   -2.0924   -0.5096 C   0  0  0  0  0  0  0  0  0  0  0  0
    7.2507   -4.2977   -0.4063 C   0  0  0  0  0  0  0  0  0  0  0  0
    8.0924   -4.8091    0.7646 C   0  0  0  0  0  0  0  0  0  0  0  0
    5.8181   -4.8174   -0.2698 C   0  0  0  0  0  0  0  0  0  0  0  0
    7.8510   -4.7965   -1.7222 C   0  0  0  0  0  0  0  0  0  0  0  0
    4.7643    0.0207   -0.1446 C   0  0  0  0  0  0  0  0  0  0  0  0
    4.7613    1.2362   -0.1386 O   0  0  0  0  0  0  0  0  0  0  0  0
    3.6041   -0.6565   -0.0354 N   0  0  0  0  0  0  0  0  0  0  0  0
    2.3933    0.0327   -0.0267 C   0  0  0  0  0  0  0  0  0  0  0  0
    2.2515    1.1963   -0.7785 C   0  0  0  0  0  0  0  0  0  0  0  0
    1.0681    1.8777   -0.7759 C   0  0  0  0  0  0  0  0  0  0  0  0
   -0.0090    1.4089   -0.0166 C   0  0  0  0  0  0  0  0  0  0  0  0
    0.1302    0.2387    0.7408 C   0  0  0  0  0  0  0  0  0  0  0  0
    1.3302   -0.4436    0.7322 C   0  0  0  0  0  0  0  0  0  0  0  0
   -0.9055   -0.2201    1.4771 F   0  0  0  0  0  0  0  0  0  0  0  0
   -1.2838    2.1467   -0.0086 C   0  0  0  0  0  0  0  0  0  0  0  0
   -2.2184    1.7377    0.6518 O   0  0  0  0  0  0  0  0  0  0  0  0
    8.9721    1.8079    0.3496 H   0  0  0  0  0  0  0  0  0  0  0  0
   10.3950    2.0919   -0.6815 H   0  0  0  0  0  0  0  0  0  0  0  0
    8.8002    1.8157   -1.4221 H   0  0  0  0  0  0  0  0  0  0  0  0
   10.8462   -1.4043    0.5145 H   0  0  0  0  0  0  0  0  0  0  0  0
   11.5898    0.2116    0.4495 H   0  0  0  0  0  0  0  0  0  0  0  0
   10.1669   -0.0725    1.4805 H   0  0  0  0  0  0  0  0  0  0  0  0
    9.7537   -0.0538   -2.7779 H   0  0  0  0  0  0  0  0  0  0  0  0
   11.3485    0.2225   -2.0373 H   0  0  0  0  0  0  0  0  0  0  0  0
   10.6049   -1.3934   -1.9722 H   0  0  0  0  0  0  0  0  0  0  0  0
    7.2450    1.0637   -0.3803 H   0  0  0  0  0  0  0  0  0  0  0  0
    5.1204   -2.6569   -0.1813 H   0  0  0  0  0  0  0  0  0  0  0  0
    9.3627   -2.6297   -0.6028 H   0  0  0  0  0  0  0  0  0  0  0  0
    7.6647   -4.4537    1.7021 H   0  0  0  0  0  0  0  0  0  0  0  0
    8.0991   -5.8991    0.7584 H   0  0  0  0  0  0  0  0  0  0  0  0
    9.1129   -4.4389    0.6674 H   0  0  0  0  0  0  0  0  0  0  0  0
    5.2185   -4.4531   -1.1040 H   0  0  0  0  0  0  0  0  0  0  0  0
    5.8249   -5.9074   -0.2760 H   0  0  0  0  0  0  0  0  0  0  0  0
    5.3904   -4.4620    0.6676 H   0  0  0  0  0  0  0  0  0  0  0  0
    8.8716   -4.4263   -1.8193 H   0  0  0  0  0  0  0  0  0  0  0  0
    7.8578   -5.8865   -1.7283 H   0  0  0  0  0  0  0  0  0  0  0  0
    7.2514   -4.4322   -2.5563 H   0  0  0  0  0  0  0  0  0  0  0  0
    3.6121   -1.6238    0.0371 H   0  0  0  0  0  0  0  0  0  0  0  0
    3.0808    1.5612   -1.3663 H   0  0  0  0  0  0  0  0  0  0  0  0
    0.9639    2.7798   -1.3605 H   0  0  0  0  0  0  0  0  0  0  0  0
    1.4430   -1.3464    1.3139 H   0  0  0  0  0  0  0  0  0  0  0  0
   -1.4137    3.2753   -0.7336 O   0  5  0  0  0  0  0  0  0  0  0  0
  1  2  1  0  0  0  0
  1 27  1  0  0  0  0
  1 28  1  0  0  0  0
  1 29  1  0  0  0  0
  2  3  1  0  0  0  0
  2  4  1  0  0  0  0
  2  5  1  0  0  0  0
  3 30  1  0  0  0  0
  3 31  1  0  0  0  0
  3 32  1  0  0  0  0
  4 33  1  0  0  0  0
  4 34  1  0  0  0  0
  4 35  1  0  0  0  0
  5 10  2  0  0  0  0
  5  6  1  0  0  0  0
  6  7  2  0  0  0  0
  6 36  1  0  0  0  0
  7  8  1  0  0  0  0
  7 15  1  0  0  0  0
  8  9  2  0  0  0  0
  8 37  1  0  0  0  0
  9 10  1  0  0  0  0
  9 11  1  0  0  0  0
 10 38  1  0  0  0  0
 11 12  1  0  0  0  0
 11 13  1  0  0  0  0
 11 14  1  0  0  0  0
 12 39  1  0  0  0  0
 12 40  1  0  0  0  0
 12 41  1  0  0  0  0
 13 42  1  0  0  0  0
 13 43  1  0  0  0  0
 13 44  1  0  0  0  0
 14 45  1  0  0  0  0
 14 46  1  0  0  0  0
 14 47  1  0  0  0  0
 15 16  2  0  0  0  0
 15 17  1  0  0  0  0
 17 18  1  0  0  0  0
 17 48  1  0  0  0  0
 18 23  2  0  0  0  0
 18 19  1  0  0  0  0
 19 20  2  0  0  0  0
 19 49  1  0  0  0  0
 20 21  1  0  0  0  0
 20 50  1  0  0  0  0
 21 22  2  0  0  0  0
 21 25  1  0  0  0  0
 22 23  1  0  0  0  0
 22 24  1  0  0  0  0
 23 51  1  0  0  0  0
 25 26  2  0  0  0  0
 25 52  1  0  0  0  0
M  CHG  1  52  -1
M  END
$$$$
ZINC01894034
  -OEChem-08230709463D

 53 54  0     0  0  0  0  0  0999 V2000
    0.2763    3.8510    1.4894 C   0  0  0  0  0  0  0  0  0  0  0  0
    1.0875    3.5413    0.2296 C   0  0  0  0  0  0  0  0  0  0  0  0
    2.5073    4.0884    0.3901 C   0  0  0  0  0  0  0  0  0  0  0  0
    0.4213    4.1990   -0.9805 C   0  0  0  0  0  0  0  0  0  0  0  0
    1.1444    2.0497    0.0228 C   0  0  0  0  0  0  0  0  0  0  0  0
    2.3628    1.4057    0.0035 C   0  0  0  0  0  0  0  0  0  0  0  0
    2.4169    0.0232   -0.1885 C   0  0  0  0  0  0  0  0  0  0  0  0
    1.2278   -0.6994   -0.3601 C   0  0  0  0  0  0  0  0  0  0  0  0
    0.0109   -0.0352   -0.3375 C   0  0  0  0  0  0  0  0  0  0  0  0
   -0.0281    1.3321   -0.1471 C   0  0  0  0  0  0  0  0  0  0  0  0
   -1.2708   -0.8062   -0.5213 C   0  0  0  0  0  0  0  0  0  0  0  0
   -2.4586    0.1559   -0.4555 C   0  0  0  0  0  0  0  0  0  0  0  0
   -1.2551   -1.5047   -1.8825 C   0  0  0  0  0  0  0  0  0  0  0  0
   -1.4000   -1.8526    0.5874 C   0  0  0  0  0  0  0  0  0  0  0  0
    1.2677   -2.0425   -0.5470 O   0  0  0  0  0  0  0  0  0  0  0  0
    3.7174   -0.6722   -0.2112 C   0  0  0  0  0  0  0  0  0  0  0  0
    3.7604   -1.8757   -0.3790 O   0  0  0  0  0  0  0  0  0  0  0  0
    4.8581    0.0263   -0.0458 N   0  0  0  0  0  0  0  0  0  0  0  0
    6.0775   -0.6419    0.0432 C   0  0  0  0  0  0  0  0  0  0  0  0
    6.1401   -1.8944    0.6484 C   0  0  0  0  0  0  0  0  0  0  0  0
    7.3301   -2.5587    0.7347 C   0  0  0  0  0  0  0  0  0  0  0  0
    8.4958   -1.9775    0.2248 C   0  0  0  0  0  0  0  0  0  0  0  0
    8.4373   -0.7150   -0.3796 C   0  0  0  0  0  0  0  0  0  0  0  0
    7.2290   -0.0535   -0.4675 C   0  0  0  0  0  0  0  0  0  0  0  0
    9.5589   -0.1475   -0.8749 F   0  0  0  0  0  0  0  0  0  0  0  0
    9.7807   -2.6909    0.3225 C   0  0  0  0  0  0  0  0  0  0  0  0
   10.7922   -2.1845   -0.1215 O   0  0  0  0  0  0  0  0  0  0  0  0
    0.7510    3.3824    2.3515 H   0  0  0  0  0  0  0  0  0  0  0  0
    0.2352    4.9299    1.6390 H   0  0  0  0  0  0  0  0  0  0  0  0
   -0.7352    3.4612    1.3751 H   0  0  0  0  0  0  0  0  0  0  0  0
    3.0853    3.8678   -0.5074 H   0  0  0  0  0  0  0  0  0  0  0  0
    2.4662    5.1673    0.5397 H   0  0  0  0  0  0  0  0  0  0  0  0
    2.9820    3.6199    1.2522 H   0  0  0  0  0  0  0  0  0  0  0  0
   -0.5902    3.8092   -1.0948 H   0  0  0  0  0  0  0  0  0  0  0  0
    0.3802    5.2779   -0.8309 H   0  0  0  0  0  0  0  0  0  0  0  0
    0.9992    3.9784   -1.8780 H   0  0  0  0  0  0  0  0  0  0  0  0
    3.2745    1.9694    0.1361 H   0  0  0  0  0  0  0  0  0  0  0  0
   -0.9782    1.8455   -0.1352 H   0  0  0  0  0  0  0  0  0  0  0  0
   -2.3666    0.9014   -1.2453 H   0  0  0  0  0  0  0  0  0  0  0  0
   -3.3857   -0.4018   -0.5884 H   0  0  0  0  0  0  0  0  0  0  0  0
   -2.4699    0.6535    0.5142 H   0  0  0  0  0  0  0  0  0  0  0  0
   -0.4088   -2.1901   -1.9294 H   0  0  0  0  0  0  0  0  0  0  0  0
   -2.1821   -2.0623   -2.0154 H   0  0  0  0  0  0  0  0  0  0  0  0
   -1.1630   -0.7592   -2.6723 H   0  0  0  0  0  0  0  0  0  0  0  0
   -1.4112   -1.3550    1.5571 H   0  0  0  0  0  0  0  0  0  0  0  0
   -2.3270   -2.4103    0.4544 H   0  0  0  0  0  0  0  0  0  0  0  0
   -0.5538   -2.5380    0.5405 H   0  0  0  0  0  0  0  0  0  0  0  0
    1.3301   -2.3088   -1.4744 H   0  0  0  0  0  0  0  0  0  0  0  0
    4.8301    0.9942    0.0113 H   0  0  0  0  0  0  0  0  0  0  0  0
    5.2430   -2.3443    1.0476 H   0  0  0  0  0  0  0  0  0  0  0  0
    7.3721   -3.5317    1.2015 H   0  0  0  0  0  0  0  0  0  0  0  0
    7.1782    0.9201   -0.9321 H   0  0  0  0  0  0  0  0  0  0  0  0
    9.8345   -3.9053    0.9044 O   0  5  0  0  0  0  0  0  0  0  0  0
  1  2  1  0  0  0  0
  1 28  1  0  0  0  0
  1 29  1  0  0  0  0
  1 30  1  0  0  0  0
  2  3  1  0  0  0  0
  2  4  1  0  0  0  0
  2  5  1  0  0  0  0
  3 31  1  0  0  0  0
  3 32  1  0  0  0  0
  3 33  1  0  0  0  0
  4 34  1  0  0  0  0
  4 35  1  0  0  0  0
  4 36  1  0  0  0  0
  5 10  2  0  0  0  0
  5  6  1  0  0  0  0
  6  7  2  0  0  0  0
  6 37  1  0  0  0  0
  7  8  1  0  0  0  0
  7 16  1  0  0  0  0
  8  9  2  0  0  0  0
  8 15  1  0  0  0  0
  9 10  1  0  0  0  0
  9 11  1  0  0  0  0
 10 38  1  0  0  0  0
 11 12  1  0  0  0  0
 11 13  1  0  0  0  0
 11 14  1  0  0  0  0
 12 39  1  0  0  0  0
 12 40  1  0  0  0  0
 12 41  1  0  0  0  0
 13 42  1  0  0  0  0
 13 43  1  0  0  0  0
 13 44  1  0  0  0  0
 14 45  1  0  0  0  0
 14 46  1  0  0  0  0
 14 47  1  0  0  0  0
 15 48  1  0  0  0  0
 16 17  2  0  0  0  0
 16 18  1  0  0  0  0
 18 19  1  0  0  0  0
 18 49  1  0  0  0  0
 19 24  2  0  0  0  0
 19 20  1  0  0  0  0
 20 21  2  0  0  0  0
 20 50  1  0  0  0  0
 21 22  1  0  0  0  0
 21 51  1  0  0  0  0
 22 23  2  0  0  0  0
 22 26  1  0  0  0  0
 23 24  1  0  0  0  0
 23 25  1  0  0  0  0
 24 52  1  0  0  0  0
 26 27  2  0  0  0  0
 26 53  1  0  0  0  0
M  CHG  1  53  -1
M  END
$$$$
ZINC01899406
  -OEChem-08230709463D

 53 55  0     1  0  0  0  0  0999 V2000
   -0.9094    4.9509    0.0376 C   0  0  0  0  0  0  0  0  0  0  0  0
   -0.2991    4.5560   -1.2825 C   0  0  0  0  0  0  0  0  0  0  0  0
    0.7538    3.7596   -1.3112 C   0  0  0  0  0  0  0  0  0  0  0  0
    1.2698    3.1465   -0.0349 C   0  0  1  0  0  0  0  0  0  0  0  0
    0.6020    3.4414    0.7746 H   0  0  0  0  0  0  0  0  0  0  0  0
    1.2035    1.6380   -0.1754 C   0  0  0  0  0  0  0  0  0  0  0  0
    2.3152    0.9615   -0.0415 N   0  0  0  0  0  0  0  0  0  0  0  0
    3.4918    1.5480    0.2010 C   0  0  0  0  0  0  0  0  0  0  0  0
    4.4689    0.8305    0.3033 O   0  0  0  0  0  0  0  0  0  0  0  0
    3.6728    2.8668    0.3450 N   0  0  0  0  0  0  0  0  0  0  0  0
    2.6407    3.7338    0.2460 C   0  0  0  0  0  0  0  0  0  0  0  0
    2.8028    4.9283    0.3761 O   0  0  0  0  0  0  0  0  0  0  0  0
    4.9595    3.3585    0.6035 C   0  0  0  0  0  0  0  0  0  0  0  0
    5.5860    3.0685    1.8081 C   0  0  0  0  0  0  0  0  0  0  0  0
    6.8564    3.5498    2.0576 C   0  0  0  0  0  0  0  0  0  0  0  0
    7.4996    4.3292    1.1137 C   0  0  0  0  0  0  0  0  0  0  0  0
    6.8760    4.6245   -0.0846 C   0  0  0  0  0  0  0  0  0  0  0  0
    5.6079    4.1414   -0.3421 C   0  0  0  0  0  0  0  0  0  0  0  0
    8.8834    4.8575    1.3914 C   0  0  0  0  0  0  0  0  0  0  0  0
    0.0398    1.0159   -0.4240 O   0  0  0  0  0  0  0  0  0  0  0  0
    1.3857    3.4869   -2.5176 N   0  0  0  0  0  0  0  0  0  0  0  0
    0.9907    4.1583   -3.6832 C   0  0  0  0  0  0  0  0  0  0  0  0
    0.3742    3.4604   -4.7115 C   0  0  0  0  0  0  0  0  0  0  0  0
   -0.0207    4.1236   -5.8579 C   0  0  0  0  0  0  0  0  0  0  0  0
    0.2093    5.4852   -5.9882 C   0  0  0  0  0  0  0  0  0  0  0  0
    0.8304    6.1862   -4.9653 C   0  0  0  0  0  0  0  0  0  0  0  0
    1.2219    5.5260   -3.8126 C   0  0  0  0  0  0  0  0  0  0  0  0
    1.8315    6.2116   -2.8087 O   0  0  0  0  0  0  0  0  0  0  0  0
    2.0362    7.6114   -3.0102 C   0  0  0  0  0  0  0  0  0  0  0  0
   -0.1751    6.1336   -7.1201 O   0  0  0  0  0  0  0  0  0  0  0  0
   -0.8092    5.3501   -8.1330 C   0  0  0  0  0  0  0  0  0  0  0  0
   -1.7624    5.6064   -0.1381 H   0  0  0  0  0  0  0  0  0  0  0  0
   -1.2407    4.0573    0.5665 H   0  0  0  0  0  0  0  0  0  0  0  0
   -0.1665    5.4748    0.6391 H   0  0  0  0  0  0  0  0  0  0  0  0
   -0.7228    4.9243   -2.2051 H   0  0  0  0  0  0  0  0  0  0  0  0
    5.0823    2.4635    2.5474 H   0  0  0  0  0  0  0  0  0  0  0  0
    7.3460    3.3209    2.9926 H   0  0  0  0  0  0  0  0  0  0  0  0
    7.3810    5.2332   -0.8200 H   0  0  0  0  0  0  0  0  0  0  0  0
    5.1214    4.3720   -1.2784 H   0  0  0  0  0  0  0  0  0  0  0  0
    8.8101    5.8300    1.8784 H   0  0  0  0  0  0  0  0  0  0  0  0
    9.4132    4.1635    2.0439 H   0  0  0  0  0  0  0  0  0  0  0  0
    9.4278    4.9613    0.4529 H   0  0  0  0  0  0  0  0  0  0  0  0
    0.0651    0.0525   -0.5024 H   0  0  0  0  0  0  0  0  0  0  0  0
    2.1003    2.8320   -2.5537 H   0  0  0  0  0  0  0  0  0  0  0  0
    0.1988    2.3992   -4.6142 H   0  0  0  0  0  0  0  0  0  0  0  0
   -0.5049    3.5798   -6.6556 H   0  0  0  0  0  0  0  0  0  0  0  0
    1.0090    7.2464   -5.0679 H   0  0  0  0  0  0  0  0  0  0  0  0
    2.6606    7.7643   -3.8905 H   0  0  0  0  0  0  0  0  0  0  0  0
    1.0740    8.1018   -3.1576 H   0  0  0  0  0  0  0  0  0  0  0  0
    2.5302    8.0358   -2.1362 H   0  0  0  0  0  0  0  0  0  0  0  0
   -1.0640    5.9879   -8.9794 H   0  0  0  0  0  0  0  0  0  0  0  0
   -0.1301    4.5636   -8.4623 H   0  0  0  0  0  0  0  0  0  0  0  0
   -1.7170    4.9011   -7.7301 H   0  0  0  0  0  0  0  0  0  0  0  0
  1  2  1  0  0  0  0
  1 32  1  0  0  0  0
  1 33  1  0  0  0  0
  1 34  1  0  0  0  0
  2  3  2  0  0  0  0
  2 35  1  0  0  0  0
  3  4  1  0  0  0  0
  3 21  1  0  0  0  0
  4  5  1  0  0  0  0
  4 11  1  0  0  0  0
  4  6  1  0  0  0  0
  6  7  2  0  0  0  0
  6 20  1  0  0  0  0
  7  8  1  0  0  0  0
  8  9  2  0  0  0  0
  8 10  1  0  0  0  0
 10 11  1  0  0  0  0
 10 13  1  0  0  0  0
 11 12  2  0  0  0  0
 13 18  2  0  0  0  0
 13 14  1  0  0  0  0
 14 15  2  0  0  0  0
 14 36  1  0  0  0  0
 15 16  1  0  0  0  0
 15 37  1  0  0  0  0
 16 17  2  0  0  0  0
 16 19  1  0  0  0  0
 17 18  1  0  0  0  0
 17 38  1  0  0  0  0
 18 39  1  0  0  0  0
 19 40  1  0  0  0  0
 19 41  1  0  0  0  0
 19 42  1  0  0  0  0
 20 43  1  0  0  0  0
 21 22  1  0  0  0  0
 21 44  1  0  0  0  0
 22 27  2  0  0  0  0
 22 23  1  0  0  0  0
 23 24  2  0  0  0  0
 23 45  1  0  0  0  0
 24 25  1  0  0  0  0
 24 46  1  0  0  0  0
 25 26  2  0  0  0  0
 25 30  1  0  0  0  0
 26 27  1  0  0  0  0
 26 47  1  0  0  0  0
 27 28  1  0  0  0  0
 28 29  1  0  0  0  0
 29 48  1  0  0  0  0
 29 49  1  0  0  0  0
 29 50  1  0  0  0  0
 30 31  1  0  0  0  0
 31 51  1  0  0  0  0
 31 52  1  0  0  0  0
 31 53  1  0  0  0  0
M  END
$$$$
ZINC01899802
  -OEChem-08230709463D

 55 58  0     1  0  0  0  0  0999 V2000
    8.2678   -1.0233    6.1966 C   0  0  0  0  0  0  0  0  0  0  0  0
    7.5575    0.1468    5.5130 C   0  0  0  0  0  0  0  0  0  0  0  0
    8.4196    0.6629    4.3592 C   0  0  0  0  0  0  0  0  0  0  0  0
    7.7562    1.7558    3.7207 O   0  0  0  0  0  0  0  0  0  0  0  0
    8.3922    2.3335    2.6678 C   0  0  0  0  0  0  0  0  0  0  0  0
    9.6271    1.8548    2.2541 C   0  0  0  0  0  0  0  0  0  0  0  0
   10.2741    2.4473    1.1873 C   0  0  0  0  0  0  0  0  0  0  0  0
    9.6894    3.5131    0.5280 C   0  0  0  0  0  0  0  0  0  0  0  0
    8.4567    3.9885    0.9349 C   0  0  0  0  0  0  0  0  0  0  0  0
    7.8055    3.3992    2.0015 C   0  0  0  0  0  0  0  0  0  0  0  0
    6.4617    3.9180    2.4445 C   0  0  1  0  0  0  0  0  0  0  0  0
    6.3614    4.9542    2.1214 H   0  0  0  0  0  0  0  0  0  0  0  0
    5.3885    3.1014    1.7903 C   0  0  0  0  0  0  0  0  0  0  0  0
    5.5869    2.4316    0.5647 C   0  0  0  0  0  0  0  0  0  0  0  0
    4.4836    1.8138    0.2391 N   0  0  0  0  0  0  0  0  0  0  0  0
    3.5311    2.0556    1.2287 N   0  0  0  0  0  0  0  0  0  0  0  0
    4.1033    2.8591    2.1932 C   0  0  0  0  0  0  0  0  0  0  0  0
    3.4191    3.2363    3.2866 N   0  0  0  0  0  0  0  0  0  0  0  0
    3.6437    3.9278    4.3064 C   0  0  0  0  0  0  0  0  0  0  0  0
    4.8505    4.6913    4.6868 C   0  0  0  0  0  0  0  0  0  0  0  0
    6.3818    3.8626    4.2381 S   0  0  0  0  0  0  0  0  0  0  0  0
    2.6287    3.9847    5.1929 O   0  0  0  0  0  0  0  0  0  0  0  0
    2.1567    1.5485    1.2391 C   0  0  0  0  0  0  0  0  0  0  0  0
    1.4167    2.0553   -0.0004 C   0  0  0  0  0  0  0  0  0  0  0  0
   -0.0187    1.5258    0.0104 C   0  0  0  0  0  0  0  0  0  0  0  0
    0.0021   -0.0041    0.0020 C   0  0  0  0  0  0  0  0  0  0  0  0
    0.7421   -0.5109    1.2415 C   0  0  0  0  0  0  0  0  0  0  0  0
    2.1775    0.0187    1.2307 C   0  0  0  0  0  0  0  0  0  0  0  0
    6.7384    2.4294   -0.1586 O   0  0  0  0  0  0  0  0  0  0  0  0
    7.6536   -1.3909    7.0186 H   0  0  0  0  0  0  0  0  0  0  0  0
    8.4257   -1.8243    5.4745 H   0  0  0  0  0  0  0  0  0  0  0  0
    9.2301   -0.6881    6.5837 H   0  0  0  0  0  0  0  0  0  0  0  0
    7.3996    0.9479    6.2351 H   0  0  0  0  0  0  0  0  0  0  0  0
    6.5953   -0.1883    5.1259 H   0  0  0  0  0  0  0  0  0  0  0  0
    8.5775   -0.1381    3.6371 H   0  0  0  0  0  0  0  0  0  0  0  0
    9.3819    0.9981    4.7463 H   0  0  0  0  0  0  0  0  0  0  0  0
   10.0840    1.0223    2.7685 H   0  0  0  0  0  0  0  0  0  0  0  0
   11.2372    2.0778    0.8675 H   0  0  0  0  0  0  0  0  0  0  0  0
   10.1965    3.9746   -0.3064 H   0  0  0  0  0  0  0  0  0  0  0  0
    8.0022    4.8210    0.4183 H   0  0  0  0  0  0  0  0  0  0  0  0
    4.8401    4.8483    5.7654 H   0  0  0  0  0  0  0  0  0  0  0  0
    4.8193    5.6619    4.1918 H   0  0  0  0  0  0  0  0  0  0  0  0
    1.8248    3.4948    4.9718 H   0  0  0  0  0  0  0  0  0  0  0  0
    1.6465    1.9000    2.1359 H   0  0  0  0  0  0  0  0  0  0  0  0
    1.9269    1.7038   -0.8972 H   0  0  0  0  0  0  0  0  0  0  0  0
    1.4019    3.1452    0.0056 H   0  0  0  0  0  0  0  0  0  0  0  0
   -0.5459    1.8868   -0.8726 H   0  0  0  0  0  0  0  0  0  0  0  0
   -0.5289    1.8773    0.9072 H   0  0  0  0  0  0  0  0  0  0  0  0
   -1.0205   -0.3814    0.0098 H   0  0  0  0  0  0  0  0  0  0  0  0
    0.5123   -0.3556   -0.8948 H   0  0  0  0  0  0  0  0  0  0  0  0
    0.2319   -0.1594    2.1383 H   0  0  0  0  0  0  0  0  0  0  0  0
    0.7568   -1.6008    1.2356 H   0  0  0  0  0  0  0  0  0  0  0  0
    2.7046   -0.3424    2.1137 H   0  0  0  0  0  0  0  0  0  0  0  0
    2.6876   -0.3328    0.3339 H   0  0  0  0  0  0  0  0  0  0  0  0
    6.7987    3.1467   -0.8044 H   0  0  0  0  0  0  0  0  0  0  0  0
  1  2  1  0  0  0  0
  1 30  1  0  0  0  0
  1 31  1  0  0  0  0
  1 32  1  0  0  0  0
  2  3  1  0  0  0  0
  2 33  1  0  0  0  0
  2 34  1  0  0  0  0
  3  4  1  0  0  0  0
  3 35  1  0  0  0  0
  3 36  1  0  0  0  0
  4  5  1  0  0  0  0
  5 10  2  0  0  0  0
  5  6  1  0  0  0  0
  6  7  2  0  0  0  0
  6 37  1  0  0  0  0
  7  8  1  0  0  0  0
  7 38  1  0  0  0  0
  8  9  2  0  0  0  0
  8 39  1  0  0  0  0
  9 10  1  0  0  0  0
  9 40  1  0  0  0  0
 10 11  1  0  0  0  0
 11 12  1  0  0  0  0
 11 21  1  0  0  0  0
 11 13  1  0  0  0  0
 13 17  2  0  0  0  0
 13 14  1  0  0  0  0
 14 15  2  0  0  0  0
 14 29  1  0  0  0  0
 15 16  1  0  0  0  0
 16 17  1  0  0  0  0
 16 23  1  0  0  0  0
 17 18  1  0  0  0  0
 18 19  2  0  0  0  0
 19 20  1  0  0  0  0
 19 22  1  0  0  0  0
 20 21  1  0  0  0  0
 20 41  1  0  0  0  0
 20 42  1  0  0  0  0
 22 43  1  0  0  0  0
 23 28  1  0  0  0  0
 23 24  1  0  0  0  0
 23 44  1  0  0  0  0
 24 25  1  0  0  0  0
 24 45  1  0  0  0  0
 24 46  1  0  0  0  0
 25 26  1  0  0  0  0
 25 47  1  0  0  0  0
 25 48  1  0  0  0  0
 26 27  1  0  0  0  0
 26 49  1  0  0  0  0
 26 50  1  0  0  0  0
 27 28  1  0  0  0  0
 27 51  1  0  0  0  0
 27 52  1  0  0  0  0
 28 53  1  0  0  0  0
 28 54  1  0  0  0  0
 29 55  1  0  0  0  0
M  END
$$$$
ZINC01899803
  -OEChem-08230709463D

 55 58  0     1  0  0  0  0  0999 V2000
   -1.3086    6.2763    0.0501 C   0  0  0  0  0  0  0  0  0  0  0  0
    0.0625    5.5976    0.0329 C   0  0  0  0  0  0  0  0  0  0  0  0
   -0.1203    4.0786    0.0260 C   0  0  0  0  0  0  0  0  0  0  0  0
    1.1603    3.4448    0.0099 O   0  0  0  0  0  0  0  0  0  0  0  0
    1.1761    2.0859    0.0020 C   0  0  0  0  0  0  0  0  0  0  0  0
   -0.0167    1.3770    0.0096 C   0  0  0  0  0  0  0  0  0  0  0  0
    0.0021   -0.0041    0.0020 C   0  0  0  0  0  0  0  0  0  0  0  0
    1.2082   -0.6803   -0.0131 C   0  0  0  0  0  0  0  0  0  0  0  0
    2.3980    0.0237   -0.0207 C   0  0  0  0  0  0  0  0  0  0  0  0
    2.3846    1.4052   -0.0127 C   0  0  0  0  0  0  0  0  0  0  0  0
    3.6820    2.1720   -0.0200 C   0  0  2  0  0  0  0  0  0  0  0  0
    3.5512    3.0888    0.5548 H   0  0  0  0  0  0  0  0  0  0  0  0
    4.0226    2.5325   -1.4344 C   0  0  0  0  0  0  0  0  0  0  0  0
    3.0416    2.6701   -2.4386 C   0  0  0  0  0  0  0  0  0  0  0  0
    3.6286    2.9937   -3.5592 N   0  0  0  0  0  0  0  0  0  0  0  0
    5.0020    3.0796   -3.3319 N   0  0  0  0  0  0  0  0  0  0  0  0
    5.2406    2.7837   -2.0056 C   0  0  0  0  0  0  0  0  0  0  0  0
    6.4871    2.7705   -1.5042 N   0  0  0  0  0  0  0  0  0  0  0  0
    7.0178    2.5460   -0.3921 C   0  0  0  0  0  0  0  0  0  0  0  0
    6.3933    2.2352    0.9108 C   0  0  0  0  0  0  0  0  0  0  0  0
    4.9499    1.1730    0.7680 S   0  0  0  0  0  0  0  0  0  0  0  0
    8.3656    2.5949   -0.3822 O   0  0  0  0  0  0  0  0  0  0  0  0
    6.0171    3.4244   -4.3303 C   0  0  0  0  0  0  0  0  0  0  0  0
    5.7320    4.8210   -4.8863 C   0  0  0  0  0  0  0  0  0  0  0  0
    6.7922    5.1810   -5.9289 C   0  0  0  0  0  0  0  0  0  0  0  0
    6.7539    4.1608   -7.0685 C   0  0  0  0  0  0  0  0  0  0  0  0
    7.0391    2.7642   -6.5125 C   0  0  0  0  0  0  0  0  0  0  0  0
    5.9789    2.4042   -5.4698 C   0  0  0  0  0  0  0  0  0  0  0  0
    1.7040    2.4942   -2.2678 O   0  0  0  0  0  0  0  0  0  0  0  0
   -1.1784    7.3585    0.0550 H   0  0  0  0  0  0  0  0  0  0  0  0
   -1.8708    5.9820   -0.8361 H   0  0  0  0  0  0  0  0  0  0  0  0
   -1.8535    5.9719    0.9437 H   0  0  0  0  0  0  0  0  0  0  0  0
    0.6247    5.8919    0.9191 H   0  0  0  0  0  0  0  0  0  0  0  0
    0.6074    5.9021   -0.8607 H   0  0  0  0  0  0  0  0  0  0  0  0
   -0.6825    3.7843   -0.8602 H   0  0  0  0  0  0  0  0  0  0  0  0
   -0.6652    3.7742    0.9196 H   0  0  0  0  0  0  0  0  0  0  0  0
   -0.9589    1.9047    0.0170 H   0  0  0  0  0  0  0  0  0  0  0  0
   -0.9261   -0.5563    0.0076 H   0  0  0  0  0  0  0  0  0  0  0  0
    1.2208   -1.7602   -0.0187 H   0  0  0  0  0  0  0  0  0  0  0  0
    3.3387   -0.5068   -0.0325 H   0  0  0  0  0  0  0  0  0  0  0  0
    7.1306    1.7414    1.5438 H   0  0  0  0  0  0  0  0  0  0  0  0
    6.0948    3.1688    1.3877 H   0  0  0  0  0  0  0  0  0  0  0  0
    8.8038    2.7959   -1.2205 H   0  0  0  0  0  0  0  0  0  0  0  0
    7.0028    3.4127   -3.8651 H   0  0  0  0  0  0  0  0  0  0  0  0
    4.7463    4.8326   -5.3514 H   0  0  0  0  0  0  0  0  0  0  0  0
    5.7593    5.5478   -4.0744 H   0  0  0  0  0  0  0  0  0  0  0  0
    7.7779    5.1694   -5.4638 H   0  0  0  0  0  0  0  0  0  0  0  0
    6.5891    6.1760   -6.3250 H   0  0  0  0  0  0  0  0  0  0  0  0
    7.5093    4.4173   -7.8113 H   0  0  0  0  0  0  0  0  0  0  0  0
    5.7682    4.1725   -7.5336 H   0  0  0  0  0  0  0  0  0  0  0  0
    8.0248    2.7526   -6.0474 H   0  0  0  0  0  0  0  0  0  0  0  0
    7.0118    2.0374   -7.3244 H   0  0  0  0  0  0  0  0  0  0  0  0
    6.1820    1.4092   -5.0737 H   0  0  0  0  0  0  0  0  0  0  0  0
    4.9931    2.4158   -5.9350 H   0  0  0  0  0  0  0  0  0  0  0  0
    1.2304    3.2990   -2.0165 H   0  0  0  0  0  0  0  0  0  0  0  0
  1  2  1  0  0  0  0
  1 30  1  0  0  0  0
  1 31  1  0  0  0  0
  1 32  1  0  0  0  0
  2  3  1  0  0  0  0
  2 33  1  0  0  0  0
  2 34  1  0  0  0  0
  3  4  1  0  0  0  0
  3 35  1  0  0  0  0
  3 36  1  0  0  0  0
  4  5  1  0  0  0  0
  5 10  2  0  0  0  0
  5  6  1  0  0  0  0
  6  7  2  0  0  0  0
  6 37  1  0  0  0  0
  7  8  1  0  0  0  0
  7 38  1  0  0  0  0
  8  9  2  0  0  0  0
  8 39  1  0  0  0  0
  9 10  1  0  0  0  0
  9 40  1  0  0  0  0
 10 11  1  0  0  0  0
 11 12  1  0  0  0  0
 11 21  1  0  0  0  0
 11 13  1  0  0  0  0
 13 17  2  0  0  0  0
 13 14  1  0  0  0  0
 14 15  2  0  0  0  0
 14 29  1  0  0  0  0
 15 16  1  0  0  0  0
 16 17  1  0  0  0  0
 16 23  1  0  0  0  0
 17 18  1  0  0  0  0
 18 19  2  0  0  0  0
 19 20  1  0  0  0  0
 19 22  1  0  0  0  0
 20 21  1  0  0  0  0
 20 41  1  0  0  0  0
 20 42  1  0  0  0  0
 22 43  1  0  0  0  0
 23 28  1  0  0  0  0
 23 24  1  0  0  0  0
 23 44  1  0  0  0  0
 24 25  1  0  0  0  0
 24 45  1  0  0  0  0
 24 46  1  0  0  0  0
 25 26  1  0  0  0  0
 25 47  1  0  0  0  0
 25 48  1  0  0  0  0
 26 27  1  0  0  0  0
 26 49  1  0  0  0  0
 26 50  1  0  0  0  0
 27 28  1  0  0  0  0
 27 51  1  0  0  0  0
 27 52  1  0  0  0  0
 28 53  1  0  0  0  0
 28 54  1  0  0  0  0
 29 55  1  0  0  0  0
M  END
$$$$
ZINC01903383
  -OEChem-08230709463D

 56 58  0     1  0  0  0  0  0999 V2000
   -0.6107    5.6783    0.5804 C   0  0  0  0  0  0  0  0  0  0  0  0
   -0.4457    4.1928    0.3873 C   0  0  0  0  0  0  0  0  0  0  0  0
    0.8207    3.6488    0.2665 C   0  0  0  0  0  0  0  0  0  0  0  0
    0.9809    2.2860    0.0886 C   0  0  0  0  0  0  0  0  0  0  0  0
   -0.1228    1.4604    0.0309 C   0  0  0  0  0  0  0  0  0  0  0  0
   -1.4034    2.0034    0.1472 C   0  0  0  0  0  0  0  0  0  0  0  0
   -1.5578    3.3784    0.3310 C   0  0  0  0  0  0  0  0  0  0  0  0
   -2.5914    1.1250    0.0807 C   0  0  0  0  0  0  0  0  0  0  0  0
   -2.8345    0.1451    1.0745 C   0  0  0  0  0  0  0  0  0  0  0  0
   -1.9580   -0.0273    2.1549 C   0  0  0  0  0  0  0  0  0  0  0  0
   -2.2231   -0.9799    3.0925 C   0  0  0  0  0  0  0  0  0  0  0  0
   -3.3551   -1.7850    2.9906 C   0  0  0  0  0  0  0  0  0  0  0  0
   -4.2262   -1.6437    1.9539 C   0  0  0  0  0  0  0  0  0  0  0  0
   -3.9861   -0.6718    0.9672 C   0  0  0  0  0  0  0  0  0  0  0  0
   -4.8294   -0.5164   -0.0605 N   0  0  0  0  0  0  0  0  0  0  0  0
   -4.6295    0.3800   -0.9927 C   0  0  0  0  0  0  0  0  0  0  0  0
   -3.5184    1.2375   -0.9647 C   0  0  0  0  0  0  0  0  0  0  0  0
   -3.3249    2.2422   -2.0278 C   0  0  0  0  0  0  0  0  0  0  0  0
   -2.2107    2.2389   -2.7495 C   0  0  0  0  0  0  0  0  0  0  0  0
   -1.9650    3.3284   -3.7613 C   0  0  2  0  0  0  0  0  0  0  0  0
   -1.9502    2.8978   -4.7625 H   0  0  0  0  0  0  0  0  0  0  0  0
   -0.6194    3.9973   -3.4738 C   0  0  0  0  0  0  0  0  0  0  0  0
   -0.3119    5.0172   -4.5721 C   0  0  2  0  0  0  0  0  0  0  0  0
   -0.3549    4.5276   -5.5450 H   0  0  0  0  0  0  0  0  0  0  0  0
    1.0876    5.5957   -4.3536 C   0  0  0  0  0  0  0  0  0  0  0  0
    1.4391    6.5072   -5.5011 C   0  0  0  0  0  0  0  0  0  0  0  0
    0.6512    6.6767   -6.4012 O   0  0  0  0  0  0  0  0  0  0  0  0
   -1.2755    6.0714   -4.5264 O   0  0  0  0  0  0  0  0  0  0  0  0
   -3.0083    4.3012   -3.6765 O   0  0  0  0  0  0  0  0  0  0  0  0
   -5.6210    0.4993   -2.1214 C   0  0  0  0  0  0  0  0  0  0  0  0
    2.3641    1.7023   -0.0421 C   0  0  0  0  0  0  0  0  0  0  0  0
   -0.6927    6.1641   -0.3918 H   0  0  0  0  0  0  0  0  0  0  0  0
   -1.5131    5.8713    1.1604 H   0  0  0  0  0  0  0  0  0  0  0  0
    0.2546    6.0738    1.1124 H   0  0  0  0  0  0  0  0  0  0  0  0
    1.6881    4.2908    0.3110 H   0  0  0  0  0  0  0  0  0  0  0  0
    0.0035    0.3969   -0.1084 H   0  0  0  0  0  0  0  0  0  0  0  0
   -2.5458    3.8043    0.4251 H   0  0  0  0  0  0  0  0  0  0  0  0
   -1.0776    0.5918    2.2438 H   0  0  0  0  0  0  0  0  0  0  0  0
   -1.5473   -1.1124    3.9244 H   0  0  0  0  0  0  0  0  0  0  0  0
   -3.5447   -2.5334    3.7458 H   0  0  0  0  0  0  0  0  0  0  0  0
   -5.0993   -2.2762    1.8899 H   0  0  0  0  0  0  0  0  0  0  0  0
   -4.0898    2.9804   -2.2189 H   0  0  0  0  0  0  0  0  0  0  0  0
   -1.4803    1.4554   -2.6115 H   0  0  0  0  0  0  0  0  0  0  0  0
   -0.6640    4.5039   -2.5097 H   0  0  0  0  0  0  0  0  0  0  0  0
    0.1649    3.2407   -3.4508 H   0  0  0  0  0  0  0  0  0  0  0  0
    1.1057    6.1610   -3.4218 H   0  0  0  0  0  0  0  0  0  0  0  0
    1.8122    4.7832   -4.2998 H   0  0  0  0  0  0  0  0  0  0  0  0
   -1.2932    6.5521   -3.6875 H   0  0  0  0  0  0  0  0  0  0  0  0
   -3.0802    4.7265   -2.8110 H   0  0  0  0  0  0  0  0  0  0  0  0
   -6.3430    1.2822   -1.8895 H   0  0  0  0  0  0  0  0  0  0  0  0
   -5.0948    0.7515   -3.0421 H   0  0  0  0  0  0  0  0  0  0  0  0
   -6.1422   -0.4494   -2.2490 H   0  0  0  0  0  0  0  0  0  0  0  0
    2.6553    1.6893   -1.0924 H   0  0  0  0  0  0  0  0  0  0  0  0
    3.0701    2.3107    0.5232 H   0  0  0  0  0  0  0  0  0  0  0  0
    2.3674    0.6847    0.3485 H   0  0  0  0  0  0  0  0  0  0  0  0
    2.6276    7.1307   -5.5231 O   0  5  0  0  0  0  0  0  0  0  0  0
  1  2  1  0  0  0  0
  1 32  1  0  0  0  0
  1 33  1  0  0  0  0
  1 34  1  0  0  0  0
  2  7  2  0  0  0  0
  2  3  1  0  0  0  0
  3  4  2  0  0  0  0
  3 35  1  0  0  0  0
  4  5  1  0  0  0  0
  4 31  1  0  0  0  0
  5  6  2  0  0  0  0
  5 36  1  0  0  0  0
  6  7  1  0  0  0  0
  6  8  1  0  0  0  0
  7 37  1  0  0  0  0
  8 17  2  0  0  0  0
  8  9  1  0  0  0  0
  9 14  2  0  0  0  0
  9 10  1  0  0  0  0
 10 11  2  0  0  0  0
 10 38  1  0  0  0  0
 11 12  1  0  0  0  0
 11 39  1  0  0  0  0
 12 13  2  0  0  0  0
 12 40  1  0  0  0  0
 13 14  1  0  0  0  0
 13 41  1  0  0  0  0
 14 15  1  0  0  0  0
 15 16  2  0  0  0  0
 16 17  1  0  0  0  0
 16 30  1  0  0  0  0
 17 18  1  0  0  0  0
 18 19  2  0  0  0  0
 18 42  1  0  0  0  0
 19 20  1  0  0  0  0
 19 43  1  0  0  0  0
 20 21  1  0  0  0  0
 20 22  1  0  0  0  0
 20 29  1  0  0  0  0
 22 23  1  0  0  0  0
 22 44  1  0  0  0  0
 22 45  1  0  0  0  0
 23 24  1  0  0  0  0
 23 25  1  0  0  0  0
 23 28  1  0  0  0  0
 25 26  1  0  0  0  0
 25 46  1  0  0  0  0
 25 47  1  0  0  0  0
 26 27  2  0  0  0  0
 26 56  1  0  0  0  0
 28 48  1  0  0  0  0
 29 49  1  0  0  0  0
 30 50  1  0  0  0  0
 30 51  1  0  0  0  0
 30 52  1  0  0  0  0
 31 53  1  0  0  0  0
 31 54  1  0  0  0  0
 31 55  1  0  0  0  0
M  CHG  1  56  -1
M  END
$$$$
ZINC01911337
  -OEChem-08230709463D

 57 59  0     0  0  0  0  0  0999 V2000
    9.2505   -0.9355   -1.5115 C   0  0  0  0  0  0  0  0  0  0  0  0
    8.6792   -1.0010   -0.0937 C   0  0  0  0  0  0  0  0  0  0  0  0
    8.5537   -2.4623    0.3316 C   0  0  0  0  0  0  0  0  0  0  0  0
    7.4447   -3.1150   -0.5022 C   0  0  0  0  0  0  0  0  0  0  0  0
    6.1035   -2.5364   -0.0562 C   0  0  0  0  0  0  0  0  0  0  0  0
    6.1489   -1.0305   -0.0578 C   0  0  0  0  0  0  0  0  0  0  0  0
    7.3332   -0.3239   -0.0687 C   0  0  0  0  0  0  0  0  0  0  0  0
    7.3118    1.0666   -0.0612 C   0  0  0  0  0  0  0  0  0  0  0  0
    6.1189    1.7525   -0.0449 C   0  0  0  0  0  0  0  0  0  0  0  0
    4.9148    1.0431   -0.0373 C   0  0  0  0  0  0  0  0  0  0  0  0
    4.9412   -0.3516   -0.0383 C   0  0  0  0  0  0  0  0  0  0  0  0
    3.6288    1.7620   -0.0221 C   0  0  0  0  0  0  0  0  0  0  0  0
    2.4743    1.0739   -0.0148 C   0  0  0  0  0  0  0  0  0  0  0  0
    1.1897    1.7921    0.0003 C   0  0  0  0  0  0  0  0  0  0  0  0
   -0.0126    1.0758    0.0080 C   0  0  0  0  0  0  0  0  0  0  0  0
   -1.2042    1.7425    0.0172 C   0  0  0  0  0  0  0  0  0  0  0  0
   -1.2233    3.1410    0.0292 C   0  0  0  0  0  0  0  0  0  0  0  0
   -0.0220    3.8573    0.0220 C   0  0  0  0  0  0  0  0  0  0  0  0
    1.1701    3.1914    0.0075 C   0  0  0  0  0  0  0  0  0  0  0  0
   -2.5106    3.8607    0.0438 C   0  0  0  0  0  0  0  0  0  0  0  0
   -2.5274    5.0756    0.0497 O   0  0  0  0  0  0  0  0  0  0  0  0
    6.1110    3.2595   -0.0350 C   0  0  0  0  0  0  0  0  0  0  0  0
    7.4557    3.7429   -0.0456 O   0  0  0  0  0  0  0  0  0  0  0  0
    7.5611    5.1680   -0.0373 C   0  0  0  0  0  0  0  0  0  0  0  0
    5.0071   -3.0091   -1.0130 C   0  0  0  0  0  0  0  0  0  0  0  0
    5.7865   -3.0293    1.3571 C   0  0  0  0  0  0  0  0  0  0  0  0
    9.6263   -0.2763    0.8648 C   0  0  0  0  0  0  0  0  0  0  0  0
    9.3602    0.1067   -1.8113 H   0  0  0  0  0  0  0  0  0  0  0  0
   10.2245   -1.4244   -1.5337 H   0  0  0  0  0  0  0  0  0  0  0  0
    8.5739   -1.4422   -2.1996 H   0  0  0  0  0  0  0  0  0  0  0  0
    9.4975   -2.9784    0.1553 H   0  0  0  0  0  0  0  0  0  0  0  0
    8.2980   -2.5161    1.3898 H   0  0  0  0  0  0  0  0  0  0  0  0
    7.6045   -2.8994   -1.5586 H   0  0  0  0  0  0  0  0  0  0  0  0
    7.4511   -4.1931   -0.3419 H   0  0  0  0  0  0  0  0  0  0  0  0
    8.2424    1.6146   -0.0686 H   0  0  0  0  0  0  0  0  0  0  0  0
    4.0142   -0.9057   -0.0284 H   0  0  0  0  0  0  0  0  0  0  0  0
    3.6139    2.8419   -0.0169 H   0  0  0  0  0  0  0  0  0  0  0  0
    2.4892   -0.0059   -0.0200 H   0  0  0  0  0  0  0  0  0  0  0  0
    0.0021   -0.0041    0.0020 H   0  0  0  0  0  0  0  0  0  0  0  0
   -2.1321    1.1899    0.0190 H   0  0  0  0  0  0  0  0  0  0  0  0
   -0.0372    4.9371    0.0276 H   0  0  0  0  0  0  0  0  0  0  0  0
    2.0977    3.7445    0.0013 H   0  0  0  0  0  0  0  0  0  0  0  0
    5.5862    3.6259   -0.9173 H   0  0  0  0  0  0  0  0  0  0  0  0
    5.6044    3.6143    0.8626 H   0  0  0  0  0  0  0  0  0  0  0  0
    8.6127    5.4546   -0.0462 H   0  0  0  0  0  0  0  0  0  0  0  0
    7.0663    5.5741   -0.9197 H   0  0  0  0  0  0  0  0  0  0  0  0
    7.0846    5.5624    0.8602 H   0  0  0  0  0  0  0  0  0  0  0  0
    4.9579   -4.0979   -0.9997 H   0  0  0  0  0  0  0  0  0  0  0  0
    4.0480   -2.5981   -0.6979 H   0  0  0  0  0  0  0  0  0  0  0  0
    5.2344   -2.6679   -2.0230 H   0  0  0  0  0  0  0  0  0  0  0  0
    6.5705   -2.7026    2.0402 H   0  0  0  0  0  0  0  0  0  0  0  0
    4.8296   -2.6184    1.6791 H   0  0  0  0  0  0  0  0  0  0  0  0
    5.7334   -4.1180    1.3589 H   0  0  0  0  0  0  0  0  0  0  0  0
    9.2182   -0.3118    1.8749 H   0  0  0  0  0  0  0  0  0  0  0  0
   10.6014   -0.7632    0.8495 H   0  0  0  0  0  0  0  0  0  0  0  0
    9.7341    0.7626    0.5529 H   0  0  0  0  0  0  0  0  0  0  0  0
   -3.6682    3.1708    0.0507 O   0  5  0  0  0  0  0  0  0  0  0  0
  1  2  1  0  0  0  0
  1 28  1  0  0  0  0
  1 29  1  0  0  0  0
  1 30  1  0  0  0  0
  2  7  1  0  0  0  0
  2  3  1  0  0  0  0
  2 27  1  0  0  0  0
  3  4  1  0  0  0  0
  3 31  1  0  0  0  0
  3 32  1  0  0  0  0
  4  5  1  0  0  0  0
  4 33  1  0  0  0  0
  4 34  1  0  0  0  0
  5  6  1  0  0  0  0
  5 25  1  0  0  0  0
  5 26  1  0  0  0  0
  6 11  2  0  0  0  0
  6  7  1  0  0  0  0
  7  8  2  0  0  0  0
  8  9  1  0  0  0  0
  8 35  1  0  0  0  0
  9 10  2  0  0  0  0
  9 22  1  0  0  0  0
 10 11  1  0  0  0  0
 10 12  1  0  0  0  0
 11 36  1  0  0  0  0
 12 13  2  0  0  0  0
 12 37  1  0  0  0  0
 13 14  1  0  0  0  0
 13 38  1  0  0  0  0
 14 19  2  0  0  0  0
 14 15  1  0  0  0  0
 15 16  2  0  0  0  0
 15 39  1  0  0  0  0
 16 17  1  0  0  0  0
 16 40  1  0  0  0  0
 17 18  2  0  0  0  0
 17 20  1  0  0  0  0
 18 19  1  0  0  0  0
 18 41  1  0  0  0  0
 19 42  1  0  0  0  0
 20 21  2  0  0  0  0
 20 57  1  0  0  0  0
 22 23  1  0  0  0  0
 22 43  1  0  0  0  0
 22 44  1  0  0  0  0
 23 24  1  0  0  0  0
 24 45  1  0  0  0  0
 24 46  1  0  0  0  0
 24 47  1  0  0  0  0
 25 48  1  0  0  0  0
 25 49  1  0  0  0  0
 25 50  1  0  0  0  0
 26 51  1  0  0  0  0
 26 52  1  0  0  0  0
 26 53  1  0  0  0  0
 27 54  1  0  0  0  0
 27 55  1  0  0  0  0
 27 56  1  0  0  0  0
M  CHG  1  57  -1
M  END
$$$$
ZINC01912060
  -OEChem-08230709463D

 52 54  0     1  0  0  0  0  0999 V2000
    3.6651    2.1101    0.4569 C   0  0  0  0  0  0  0  0  0  0  0  0
    2.3741    1.3364    0.3799 C   0  0  0  0  0  0  0  0  0  0  0  0
    1.1628    2.0095    0.4091 C   0  0  0  0  0  0  0  0  0  0  0  0
   -0.0281    1.3167    0.3386 C   0  0  0  0  0  0  0  0  0  0  0  0
   -0.0192   -0.0683    0.2383 C   0  0  0  0  0  0  0  0  0  0  0  0
    1.2067   -0.7471    0.2098 C   0  0  0  0  0  0  0  0  0  0  0  0
    2.4021   -0.0392    0.2810 C   0  0  0  0  0  0  0  0  0  0  0  0
    1.1917   -2.2246    0.1023 C   0  0  0  0  0  0  0  0  0  0  0  0
    2.3069   -2.9199    0.0703 N   0  0  0  0  0  0  0  0  0  0  0  0
    2.2575   -4.3840    0.0690 C   0  0  1  0  0  0  0  0  0  0  0  0
    1.2215   -4.7125   -0.0139 H   0  0  0  0  0  0  0  0  0  0  0  0
    3.0592   -4.9204   -1.1186 C   0  0  0  0  0  0  0  0  0  0  0  0
    2.3921   -4.4821   -2.4239 C   0  0  0  0  0  0  0  0  0  0  0  0
    3.2748   -4.8833   -3.6075 C   0  0  0  0  0  0  0  0  0  0  0  0
    1.0272   -5.1614   -2.5522 C   0  0  0  0  0  0  0  0  0  0  0  0
    2.8493   -4.9078    1.3522 C   0  0  0  0  0  0  0  0  0  0  0  0
    3.2693   -4.1371    2.1826 O   0  0  0  0  0  0  0  0  0  0  0  0
   -0.0809   -2.8605    0.0345 C   0  0  0  0  0  0  0  0  0  0  0  0
   -1.2054   -2.1048    0.0703 C   0  0  0  0  0  0  0  0  0  0  0  0
   -1.1747   -0.7643    0.1678 O   0  0  0  0  0  0  0  0  0  0  0  0
   -2.5156   -2.7803   -0.0005 C   0  0  0  0  0  0  0  0  0  0  0  0
   -2.5814   -4.1719   -0.1082 C   0  0  0  0  0  0  0  0  0  0  0  0
   -3.8066   -4.7988   -0.1687 C   0  0  0  0  0  0  0  0  0  0  0  0
   -4.9756   -4.0485   -0.1344 C   0  0  0  0  0  0  0  0  0  0  0  0
   -4.9145   -2.6641   -0.0328 C   0  0  0  0  0  0  0  0  0  0  0  0
   -3.6936   -2.0296    0.0340 C   0  0  0  0  0  0  0  0  0  0  0  0
   -6.1811   -4.6700   -0.2001 O   0  0  0  0  0  0  0  0  0  0  0  0
   -6.1715   -6.0952   -0.3035 C   0  0  0  0  0  0  0  0  0  0  0  0
    3.9931    2.3707   -0.5494 H   0  0  0  0  0  0  0  0  0  0  0  0
    3.5090    3.0206    1.0354 H   0  0  0  0  0  0  0  0  0  0  0  0
    4.4269    1.4986    0.9404 H   0  0  0  0  0  0  0  0  0  0  0  0
    1.1512    3.0866    0.4867 H   0  0  0  0  0  0  0  0  0  0  0  0
   -0.9664    1.8513    0.3571 H   0  0  0  0  0  0  0  0  0  0  0  0
    3.3462   -0.5633    0.2593 H   0  0  0  0  0  0  0  0  0  0  0  0
    4.0746   -4.5261   -1.0793 H   0  0  0  0  0  0  0  0  0  0  0  0
    3.0902   -6.0090   -1.0741 H   0  0  0  0  0  0  0  0  0  0  0  0
    2.2605   -3.4001   -2.4192 H   0  0  0  0  0  0  0  0  0  0  0  0
    4.2742   -4.4701   -3.4719 H   0  0  0  0  0  0  0  0  0  0  0  0
    3.3355   -5.9702   -3.6634 H   0  0  0  0  0  0  0  0  0  0  0  0
    2.8434   -4.4955   -4.5303 H   0  0  0  0  0  0  0  0  0  0  0  0
    0.3984   -4.8756   -1.7090 H   0  0  0  0  0  0  0  0  0  0  0  0
    0.5520   -4.8491   -3.4821 H   0  0  0  0  0  0  0  0  0  0  0  0
    1.1589   -6.2434   -2.5569 H   0  0  0  0  0  0  0  0  0  0  0  0
   -0.1492   -3.9354   -0.0451 H   0  0  0  0  0  0  0  0  0  0  0  0
   -1.6732   -4.7555   -0.1393 H   0  0  0  0  0  0  0  0  0  0  0  0
   -3.8585   -5.8747   -0.2478 H   0  0  0  0  0  0  0  0  0  0  0  0
   -5.8255   -2.0847   -0.0065 H   0  0  0  0  0  0  0  0  0  0  0  0
   -3.6470   -0.9535    0.1134 H   0  0  0  0  0  0  0  0  0  0  0  0
   -7.1965   -6.4632   -0.3476 H   0  0  0  0  0  0  0  0  0  0  0  0
   -5.6402   -6.3903   -1.2084 H   0  0  0  0  0  0  0  0  0  0  0  0
   -5.6703   -6.5193    0.5666 H   0  0  0  0  0  0  0  0  0  0  0  0
    2.9098   -6.2304    1.5727 O   0  5  0  0  0  0  0  0  0  0  0  0
  1  2  1  0  0  0  0
  1 29  1  0  0  0  0
  1 30  1  0  0  0  0
  1 31  1  0  0  0  0
  2  7  2  0  0  0  0
  2  3  1  0  0  0  0
  3  4  2  0  0  0  0
  3 32  1  0  0  0  0
  4  5  1  0  0  0  0
  4 33  1  0  0  0  0
  5 20  1  0  0  0  0
  5  6  2  0  0  0  0
  6  7  1  0  0  0  0
  6  8  1  0  0  0  0
  7 34  1  0  0  0  0
  8  9  2  0  0  0  0
  8 18  1  0  0  0  0
  9 10  1  0  0  0  0
 10 11  1  0  0  0  0
 10 12  1  0  0  0  0
 10 16  1  0  0  0  0
 12 13  1  0  0  0  0
 12 35  1  0  0  0  0
 12 36  1  0  0  0  0
 13 14  1  0  0  0  0
 13 15  1  0  0  0  0
 13 37  1  0  0  0  0
 14 38  1  0  0  0  0
 14 39  1  0  0  0  0
 14 40  1  0  0  0  0
 15 41  1  0  0  0  0
 15 42  1  0  0  0  0
 15 43  1  0  0  0  0
 16 17  2  0  0  0  0
 16 52  1  0  0  0  0
 18 19  2  0  0  0  0
 18 44  1  0  0  0  0
 19 20  1  0  0  0  0
 19 21  1  0  0  0  0
 21 26  2  0  0  0  0
 21 22  1  0  0  0  0
 22 23  2  0  0  0  0
 22 45  1  0  0  0  0
 23 24  1  0  0  0  0
 23 46  1  0  0  0  0
 24 25  2  0  0  0  0
 24 27  1  0  0  0  0
 25 26  1  0  0  0  0
 25 47  1  0  0  0  0
 26 48  1  0  0  0  0
 27 28  1  0  0  0  0
 28 49  1  0  0  0  0
 28 50  1  0  0  0  0
 28 51  1  0  0  0  0
M  CHG  1  52  -1
M  END
$$$$
ZINC01914734
  -OEChem-08230709463D

 54 57  0     0  0  0  0  0  0999 V2000
   -5.9855    5.6872    5.3637 C   0  0  0  0  0  0  0  0  0  0  0  0
   -4.9152    5.0492    4.4757 C   0  0  0  0  0  0  0  0  0  0  0  0
   -4.9663    3.5277    4.6286 C   0  0  0  0  0  0  0  0  0  0  0  0
   -3.8401    2.9059    3.8437 C   0  0  0  0  0  0  0  0  0  0  0  0
   -2.6247    2.7488    4.2806 N   0  0  0  0  0  0  0  0  0  0  0  0
   -1.8710    2.1576    3.3200 C   0  0  0  0  0  0  0  0  0  0  0  0
   -0.5320    1.7612    3.2456 C   0  0  0  0  0  0  0  0  0  0  0  0
   -0.0906    1.1714    2.0767 C   0  0  0  0  0  0  0  0  0  0  0  0
   -0.9754    0.9916    1.0249 C   0  0  0  0  0  0  0  0  0  0  0  0
   -2.2317    1.3764    1.1130 N   0  0  0  0  0  0  0  0  0  0  0  0
   -2.7081    1.9417    2.2108 C   0  0  0  0  0  0  0  0  0  0  0  0
   -3.9462    2.4260    2.5744 N   0  0  0  0  0  0  0  0  0  0  0  0
   -5.1550    2.4238    1.7467 C   0  0  0  0  0  0  0  0  0  0  0  0
   -5.8486    1.0920    1.8742 C   0  0  0  0  0  0  0  0  0  0  0  0
   -5.4595    0.0331    1.0735 C   0  0  0  0  0  0  0  0  0  0  0  0
   -6.0871   -1.1904    1.1897 C   0  0  0  0  0  0  0  0  0  0  0  0
   -7.1231   -1.3549    2.1084 C   0  0  0  0  0  0  0  0  0  0  0  0
   -7.5147   -0.2822    2.9087 C   0  0  0  0  0  0  0  0  0  0  0  0
   -6.8758    0.9348    2.7875 C   0  0  0  0  0  0  0  0  0  0  0  0
   -7.8048   -2.6645    2.2341 C   0  0  0  0  0  0  0  0  0  0  0  0
   -7.0761   -3.8048    2.5603 C   0  0  0  0  0  0  0  0  0  0  0  0
   -7.7149   -5.0230    2.6759 C   0  0  0  0  0  0  0  0  0  0  0  0
   -9.0813   -5.1214    2.4702 C   0  0  0  0  0  0  0  0  0  0  0  0
   -9.8209   -4.0032    2.1467 C   0  0  0  0  0  0  0  0  0  0  0  0
   -9.1933   -2.7620    2.0302 C   0  0  0  0  0  0  0  0  0  0  0  0
   -9.9798   -1.5614    1.6904 C   0  0  0  0  0  0  0  0  0  0  0  0
   -9.4157   -0.5089    1.4668 O   0  0  0  0  0  0  0  0  0  0  0  0
   -0.4881    0.3482   -0.2477 C   0  0  0  0  0  0  0  0  0  0  0  0
    0.4034    1.9711    4.4083 C   0  0  0  0  0  0  0  0  0  0  0  0
   -6.9690    5.3247    5.0646 H   0  0  0  0  0  0  0  0  0  0  0  0
   -5.8008    5.4202    6.4042 H   0  0  0  0  0  0  0  0  0  0  0  0
   -5.9492    6.7711    5.2547 H   0  0  0  0  0  0  0  0  0  0  0  0
   -3.9317    5.4116    4.7747 H   0  0  0  0  0  0  0  0  0  0  0  0
   -5.1000    5.3162    3.4352 H   0  0  0  0  0  0  0  0  0  0  0  0
   -5.9196    3.1565    4.2525 H   0  0  0  0  0  0  0  0  0  0  0  0
   -4.8638    3.2647    5.6815 H   0  0  0  0  0  0  0  0  0  0  0  0
    0.9371    0.8529    1.9830 H   0  0  0  0  0  0  0  0  0  0  0  0
   -5.8252    3.2159    2.0804 H   0  0  0  0  0  0  0  0  0  0  0  0
   -4.8824    2.5932    0.7050 H   0  0  0  0  0  0  0  0  0  0  0  0
   -4.6601    0.1631    0.3590 H   0  0  0  0  0  0  0  0  0  0  0  0
   -5.7795   -2.0176    0.5672 H   0  0  0  0  0  0  0  0  0  0  0  0
   -8.3162   -0.4039    3.6223 H   0  0  0  0  0  0  0  0  0  0  0  0
   -7.1779    1.7662    3.4070 H   0  0  0  0  0  0  0  0  0  0  0  0
   -6.0106   -3.7365    2.7226 H   0  0  0  0  0  0  0  0  0  0  0  0
   -7.1457   -5.9053    2.9288 H   0  0  0  0  0  0  0  0  0  0  0  0
   -9.5705   -6.0797    2.5641 H   0  0  0  0  0  0  0  0  0  0  0  0
  -10.8858   -4.0873    1.9873 H   0  0  0  0  0  0  0  0  0  0  0  0
   -0.6234   -0.7315   -0.1839 H   0  0  0  0  0  0  0  0  0  0  0  0
    0.5689    0.5743   -0.3875 H   0  0  0  0  0  0  0  0  0  0  0  0
   -1.0575    0.7364   -1.0922 H   0  0  0  0  0  0  0  0  0  0  0  0
    0.8824    2.9461    4.3179 H   0  0  0  0  0  0  0  0  0  0  0  0
   -0.1601    1.9281    5.3404 H   0  0  0  0  0  0  0  0  0  0  0  0
    1.1646    1.1909    4.4077 H   0  0  0  0  0  0  0  0  0  0  0  0
  -11.3240   -1.6320    1.6281 O   0  5  0  0  0  0  0  0  0  0  0  0
  1  2  1  0  0  0  0
  1 30  1  0  0  0  0
  1 31  1  0  0  0  0
  1 32  1  0  0  0  0
  2  3  1  0  0  0  0
  2 33  1  0  0  0  0
  2 34  1  0  0  0  0
  3  4  1  0  0  0  0
  3 35  1  0  0  0  0
  3 36  1  0  0  0  0
  4 12  1  0  0  0  0
  4  5  2  0  0  0  0
  5  6  1  0  0  0  0
  6 11  2  0  0  0  0
  6  7  1  0  0  0  0
  7  8  2  0  0  0  0
  7 29  1  0  0  0  0
  8  9  1  0  0  0  0
  8 37  1  0  0  0  0
  9 10  2  0  0  0  0
  9 28  1  0  0  0  0
 10 11  1  0  0  0  0
 11 12  1  0  0  0  0
 12 13  1  0  0  0  0
 13 14  1  0  0  0  0
 13 38  1  0  0  0  0
 13 39  1  0  0  0  0
 14 19  2  0  0  0  0
 14 15  1  0  0  0  0
 15 16  2  0  0  0  0
 15 40  1  0  0  0  0
 16 17  1  0  0  0  0
 16 41  1  0  0  0  0
 17 18  2  0  0  0  0
 17 20  1  0  0  0  0
 18 19  1  0  0  0  0
 18 42  1  0  0  0  0
 19 43  1  0  0  0  0
 20 25  2  0  0  0  0
 20 21  1  0  0  0  0
 21 22  2  0  0  0  0
 21 44  1  0  0  0  0
 22 23  1  0  0  0  0
 22 45  1  0  0  0  0
 23 24  2  0  0  0  0
 23 46  1  0  0  0  0
 24 25  1  0  0  0  0
 24 47  1  0  0  0  0
 25 26  1  0  0  0  0
 26 27  2  0  0  0  0
 26 54  1  0  0  0  0
 28 48  1  0  0  0  0
 28 49  1  0  0  0  0
 28 50  1  0  0  0  0
 29 51  1  0  0  0  0
 29 52  1  0  0  0  0
 29 53  1  0  0  0  0
M  CHG  1  54  -1
M  END
$$$$
ZINC01914734
  -OEChem-08230709463D

 55 58  0     0  0  0  0  0  0999 V2000
   -5.9855    5.6872    5.3637 C   0  0  0  0  0  0  0  0  0  0  0  0
   -4.9152    5.0492    4.4757 C   0  0  0  0  0  0  0  0  0  0  0  0
   -4.9663    3.5277    4.6286 C   0  0  0  0  0  0  0  0  0  0  0  0
   -3.8401    2.9059    3.8437 C   0  0  0  0  0  0  0  0  0  0  0  0
   -1.8710    2.1576    3.3200 C   0  0  0  0  0  0  0  0  0  0  0  0
   -0.5320    1.7612    3.2456 C   0  0  0  0  0  0  0  0  0  0  0  0
   -0.0906    1.1714    2.0767 C   0  0  0  0  0  0  0  0  0  0  0  0
   -0.9754    0.9916    1.0249 C   0  0  0  0  0  0  0  0  0  0  0  0
   -2.2317    1.3764    1.1130 N   0  0  0  0  0  0  0  0  0  0  0  0
   -2.7081    1.9417    2.2108 C   0  0  0  0  0  0  0  0  0  0  0  0
   -3.9462    2.4260    2.5744 N   0  0  0  0  0  0  0  0  0  0  0  0
   -5.1550    2.4238    1.7467 C   0  0  0  0  0  0  0  0  0  0  0  0
   -5.8486    1.0920    1.8742 C   0  0  0  0  0  0  0  0  0  0  0  0
   -5.4595    0.0331    1.0735 C   0  0  0  0  0  0  0  0  0  0  0  0
   -6.0871   -1.1904    1.1897 C   0  0  0  0  0  0  0  0  0  0  0  0
   -7.1231   -1.3549    2.1084 C   0  0  0  0  0  0  0  0  0  0  0  0
   -7.5147   -0.2822    2.9087 C   0  0  0  0  0  0  0  0  0  0  0  0
   -6.8758    0.9348    2.7875 C   0  0  0  0  0  0  0  0  0  0  0  0
   -7.8048   -2.6645    2.2341 C   0  0  0  0  0  0  0  0  0  0  0  0
   -7.0761   -3.8048    2.5603 C   0  0  0  0  0  0  0  0  0  0  0  0
   -7.7149   -5.0230    2.6759 C   0  0  0  0  0  0  0  0  0  0  0  0
   -9.0813   -5.1214    2.4702 C   0  0  0  0  0  0  0  0  0  0  0  0
   -9.8209   -4.0032    2.1467 C   0  0  0  0  0  0  0  0  0  0  0  0
   -9.1933   -2.7620    2.0302 C   0  0  0  0  0  0  0  0  0  0  0  0
   -9.9798   -1.5614    1.6904 C   0  0  0  0  0  0  0  0  0  0  0  0
   -9.4157   -0.5089    1.4668 O   0  0  0  0  0  0  0  0  0  0  0  0
   -0.4881    0.3482   -0.2477 C   0  0  0  0  0  0  0  0  0  0  0  0
    0.4034    1.9711    4.4083 C   0  0  0  0  0  0  0  0  0  0  0  0
   -6.9690    5.3247    5.0646 H   0  0  0  0  0  0  0  0  0  0  0  0
   -5.8008    5.4202    6.4042 H   0  0  0  0  0  0  0  0  0  0  0  0
   -5.9492    6.7711    5.2547 H   0  0  0  0  0  0  0  0  0  0  0  0
   -3.9317    5.4116    4.7747 H   0  0  0  0  0  0  0  0  0  0  0  0
   -5.1000    5.3162    3.4352 H   0  0  0  0  0  0  0  0  0  0  0  0
   -5.9196    3.1565    4.2525 H   0  0  0  0  0  0  0  0  0  0  0  0
   -4.8638    3.2647    5.6815 H   0  0  0  0  0  0  0  0  0  0  0  0
    0.9371    0.8529    1.9830 H   0  0  0  0  0  0  0  0  0  0  0  0
   -5.8252    3.2159    2.0804 H   0  0  0  0  0  0  0  0  0  0  0  0
   -4.8824    2.5932    0.7050 H   0  0  0  0  0  0  0  0  0  0  0  0
   -4.6601    0.1631    0.3590 H   0  0  0  0  0  0  0  0  0  0  0  0
   -5.7795   -2.0176    0.5672 H   0  0  0  0  0  0  0  0  0  0  0  0
   -8.3162   -0.4039    3.6223 H   0  0  0  0  0  0  0  0  0  0  0  0
   -7.1779    1.7662    3.4070 H   0  0  0  0  0  0  0  0  0  0  0  0
   -6.0106   -3.7365    2.7226 H   0  0  0  0  0  0  0  0  0  0  0  0
   -7.1457   -5.9053    2.9288 H   0  0  0  0  0  0  0  0  0  0  0  0
   -9.5705   -6.0797    2.5641 H   0  0  0  0  0  0  0  0  0  0  0  0
  -10.8858   -4.0873    1.9873 H   0  0  0  0  0  0  0  0  0  0  0  0
   -0.6234   -0.7315   -0.1839 H   0  0  0  0  0  0  0  0  0  0  0  0
    0.5689    0.5743   -0.3875 H   0  0  0  0  0  0  0  0  0  0  0  0
   -1.0575    0.7364   -1.0922 H   0  0  0  0  0  0  0  0  0  0  0  0
    0.8824    2.9461    4.3179 H   0  0  0  0  0  0  0  0  0  0  0  0
   -0.1601    1.9281    5.3404 H   0  0  0  0  0  0  0  0  0  0  0  0
    1.1646    1.1909    4.4077 H   0  0  0  0  0  0  0  0  0  0  0  0
  -11.3240   -1.6320    1.6281 O   0  5  0  0  0  0  0  0  0  0  0  0
   -2.6246    2.7489    4.2808 N   0  3  0  0  0  0  0  0  0  0  0  0
   -2.2879    3.0291    5.2094 H   0  0  0  0  0  0  0  0  0  0  0  0
  1  2  1  0  0  0  0
  1 29  1  0  0  0  0
  1 30  1  0  0  0  0
  1 31  1  0  0  0  0
  2  3  1  0  0  0  0
  2 32  1  0  0  0  0
  2 33  1  0  0  0  0
  3  4  1  0  0  0  0
  3 34  1  0  0  0  0
  3 35  1  0  0  0  0
  4 11  1  0  0  0  0
  4 54  2  0  0  0  0
  5 10  2  0  0  0  0
  5  6  1  0  0  0  0
  5 54  1  0  0  0  0
  6  7  2  0  0  0  0
  6 28  1  0  0  0  0
  7  8  1  0  0  0  0
  7 36  1  0  0  0  0
  8  9  2  0  0  0  0
  8 27  1  0  0  0  0
  9 10  1  0  0  0  0
 10 11  1  0  0  0  0
 11 12  1  0  0  0  0
 12 13  1  0  0  0  0
 12 37  1  0  0  0  0
 12 38  1  0  0  0  0
 13 18  2  0  0  0  0
 13 14  1  0  0  0  0
 14 15  2  0  0  0  0
 14 39  1  0  0  0  0
 15 16  1  0  0  0  0
 15 40  1  0  0  0  0
 16 17  2  0  0  0  0
 16 19  1  0  0  0  0
 17 18  1  0  0  0  0
 17 41  1  0  0  0  0
 18 42  1  0  0  0  0
 19 24  2  0  0  0  0
 19 20  1  0  0  0  0
 20 21  2  0  0  0  0
 20 43  1  0  0  0  0
 21 22  1  0  0  0  0
 21 44  1  0  0  0  0
 22 23  2  0  0  0  0
 22 45  1  0  0  0  0
 23 24  1  0  0  0  0
 23 46  1  0  0  0  0
 24 25  1  0  0  0  0
 25 26  2  0  0  0  0
 25 53  1  0  0  0  0
 27 47  1  0  0  0  0
 27 48  1  0  0  0  0
 27 49  1  0  0  0  0
 28 50  1  0  0  0  0
 28 51  1  0  0  0  0
 28 52  1  0  0  0  0
 54 55  1  0  0  0  0
M  CHG  2  53  -1  54   1
M  END
$$$$
ZINC02006544
  -OEChem-08230709463D

 58 59  0     1  0  0  0  0  0999 V2000
    1.0458   -0.5506    1.6410 C   0  0  0  0  0  0  0  0  0  0  0  0
    0.8060   -0.5720    0.1305 C   0  0  0  0  0  0  0  0  0  0  0  0
    2.0602   -0.0857   -0.5997 C   0  0  0  0  0  0  0  0  0  0  0  0
    2.2818    1.3632   -0.2730 C   0  0  0  0  0  0  0  0  0  0  0  0
    1.2693    2.1883   -0.0157 C   0  0  0  0  0  0  0  0  0  0  0  0
   -0.1716    1.7821   -0.0366 C   0  0  0  0  0  0  0  0  0  0  0  0
   -0.3876    0.2937   -0.2512 C   0  0  0  0  0  0  0  0  0  0  0  0
   -0.8619    2.5418   -1.1863 C   0  0  0  0  0  0  0  0  0  0  0  0
   -0.8379    2.2217    1.2742 C   0  0  0  0  0  0  0  0  0  0  0  0
    1.5886    3.5839    0.3086 C   0  0  0  0  0  0  0  0  0  0  0  0
    2.3063    4.3177   -0.5406 C   0  0  0  0  0  0  0  0  0  0  0  0
    2.5526    5.7766   -0.2539 C   0  0  2  0  0  0  0  0  0  0  0  0
    2.0649    6.3841   -1.0162 H   0  0  0  0  0  0  0  0  0  0  0  0
    4.0576    6.0520   -0.2680 C   0  0  0  0  0  0  0  0  0  0  0  0
    4.3029    7.5530   -0.1011 C   0  0  2  0  0  0  0  0  0  0  0  0
    3.7539    8.0984   -0.8688 H   0  0  0  0  0  0  0  0  0  0  0  0
    5.7985    7.8439   -0.2398 C   0  0  0  0  0  0  0  0  0  0  0  0
    6.0267    9.3329   -0.1982 C   0  0  0  0  0  0  0  0  0  0  0  0
    5.0892   10.0844   -0.0707 O   0  0  0  0  0  0  0  0  0  0  0  0
    3.8546    7.9682    1.1907 O   0  0  0  0  0  0  0  0  0  0  0  0
    2.0201    6.1061    1.0306 O   0  0  0  0  0  0  0  0  0  0  0  0
    3.6595    1.8826   -0.2373 C   0  0  0  0  0  0  0  0  0  0  0  0
    4.4293    1.9114   -1.4039 C   0  0  0  0  0  0  0  0  0  0  0  0
    5.7162    2.4041   -1.3649 C   0  0  0  0  0  0  0  0  0  0  0  0
    6.2514    2.8592   -0.1699 C   0  0  0  0  0  0  0  0  0  0  0  0
    5.4952    2.8280    0.9915 C   0  0  0  0  0  0  0  0  0  0  0  0
    4.2049    2.3435    0.9645 C   0  0  0  0  0  0  0  0  0  0  0  0
    7.5152    3.3357   -0.1371 F   0  0  0  0  0  0  0  0  0  0  0  0
    0.5272   -2.0233   -0.2971 C   0  0  0  0  0  0  0  0  0  0  0  0
    0.1628   -0.9308    2.1545 H   0  0  0  0  0  0  0  0  0  0  0  0
    1.9042   -1.1778    1.8816 H   0  0  0  0  0  0  0  0  0  0  0  0
    1.2414    0.4721    1.9634 H   0  0  0  0  0  0  0  0  0  0  0  0
    2.9200   -0.6675   -0.2719 H   0  0  0  0  0  0  0  0  0  0  0  0
    1.9245   -0.2007   -1.6734 H   0  0  0  0  0  0  0  0  0  0  0  0
   -1.2633   -0.0285    0.3316 H   0  0  0  0  0  0  0  0  0  0  0  0
   -0.6307    0.1178   -1.3100 H   0  0  0  0  0  0  0  0  0  0  0  0
   -1.9280    2.3146   -1.1834 H   0  0  0  0  0  0  0  0  0  0  0  0
   -0.7186    3.6139   -1.0510 H   0  0  0  0  0  0  0  0  0  0  0  0
   -0.4274    2.2343   -2.1375 H   0  0  0  0  0  0  0  0  0  0  0  0
   -0.4138    1.6572    2.1045 H   0  0  0  0  0  0  0  0  0  0  0  0
   -0.6630    3.2860    1.4316 H   0  0  0  0  0  0  0  0  0  0  0  0
   -1.9101    2.0342    1.2174 H   0  0  0  0  0  0  0  0  0  0  0  0
    1.2416    4.0159    1.2357 H   0  0  0  0  0  0  0  0  0  0  0  0
    2.7116    3.8671   -1.4345 H   0  0  0  0  0  0  0  0  0  0  0  0
    4.5333    5.5128    0.5511 H   0  0  0  0  0  0  0  0  0  0  0  0
    4.4792    5.7182   -1.2161 H   0  0  0  0  0  0  0  0  0  0  0  0
    6.3383    7.3705    0.5804 H   0  0  0  0  0  0  0  0  0  0  0  0
    6.1593    7.4474   -1.1889 H   0  0  0  0  0  0  0  0  0  0  0  0
    4.3011    7.5228    1.9238 H   0  0  0  0  0  0  0  0  0  0  0  0
    2.4092    5.6026    1.7587 H   0  0  0  0  0  0  0  0  0  0  0  0
    4.0151    1.5525   -2.3345 H   0  0  0  0  0  0  0  0  0  0  0  0
    6.3103    2.4313   -2.2664 H   0  0  0  0  0  0  0  0  0  0  0  0
    5.9177    3.1844    1.9193 H   0  0  0  0  0  0  0  0  0  0  0  0
    3.6165    2.3204    1.8699 H   0  0  0  0  0  0  0  0  0  0  0  0
    0.3747   -2.0613   -1.3757 H   0  0  0  0  0  0  0  0  0  0  0  0
    1.3766   -2.6510   -0.0279 H   0  0  0  0  0  0  0  0  0  0  0  0
   -0.3674   -2.3857    0.2093 H   0  0  0  0  0  0  0  0  0  0  0  0
    7.2714    9.8244   -0.3027 O   0  5  0  0  0  0  0  0  0  0  0  0
  1  2  1  0  0  0  0
  1 30  1  0  0  0  0
  1 31  1  0  0  0  0
  1 32  1  0  0  0  0
  2  7  1  0  0  0  0
  2  3  1  0  0  0  0
  2 29  1  0  0  0  0
  3  4  1  0  0  0  0
  3 33  1  0  0  0  0
  3 34  1  0  0  0  0
  4  5  2  0  0  0  0
  4 22  1  0  0  0  0
  5  6  1  0  0  0  0
  5 10  1  0  0  0  0
  6  7  1  0  0  0  0
  6  8  1  0  0  0  0
  6  9  1  0  0  0  0
  7 35  1  0  0  0  0
  7 36  1  0  0  0  0
  8 37  1  0  0  0  0
  8 38  1  0  0  0  0
  8 39  1  0  0  0  0
  9 40  1  0  0  0  0
  9 41  1  0  0  0  0
  9 42  1  0  0  0  0
 10 11  2  0  0  0  0
 10 43  1  0  0  0  0
 11 12  1  0  0  0  0
 11 44  1  0  0  0  0
 12 13  1  0  0  0  0
 12 14  1  0  0  0  0
 12 21  1  0  0  0  0
 14 15  1  0  0  0  0
 14 45  1  0  0  0  0
 14 46  1  0  0  0  0
 15 16  1  0  0  0  0
 15 17  1  0  0  0  0
 15 20  1  0  0  0  0
 17 18  1  0  0  0  0
 17 47  1  0  0  0  0
 17 48  1  0  0  0  0
 18 19  2  0  0  0  0
 18 58  1  0  0  0  0
 20 49  1  0  0  0  0
 21 50  1  0  0  0  0
 22 27  2  0  0  0  0
 22 23  1  0  0  0  0
 23 24  2  0  0  0  0
 23 51  1  0  0  0  0
 24 25  1  0  0  0  0
 24 52  1  0  0  0  0
 25 26  2  0  0  0  0
 25 28  1  0  0  0  0
 26 27  1  0  0  0  0
 26 53  1  0  0  0  0
 27 54  1  0  0  0  0
 29 55  1  0  0  0  0
 29 56  1  0  0  0  0
 29 57  1  0  0  0  0
M  CHG  1  58  -1
M  END
$$$$
ZINC02006551
  -OEChem-08230709463D

 67 68  0     1  0  0  0  0  0999 V2000
   -8.8070   -9.3021   -2.3701 C   0  0  0  0  0  0  0  0  0  0  0  0
   -8.9068   -8.5342   -1.0506 C   0  0  0  0  0  0  0  0  0  0  0  0
   -7.5623   -7.8471   -0.7540 C   0  0  0  0  0  0  0  0  0  0  0  0
   -7.7135   -6.9963    0.5027 C   0  0  0  0  0  0  0  0  0  0  0  0
   -6.6434   -7.3026    1.5460 C   0  0  0  0  0  0  0  0  0  0  0  0
   -5.3276   -6.5947    1.1835 C   0  0  0  0  0  0  0  0  0  0  0  0
   -4.5937   -7.3920    0.1299 C   0  0  0  0  0  0  0  0  0  0  0  0
   -5.1048   -8.3760   -0.5956 C   0  0  0  0  0  0  0  0  0  0  0  0
   -6.4978   -8.9186   -0.5504 C   0  0  0  0  0  0  0  0  0  0  0  0
   -4.1856   -9.0157   -1.5521 C   0  0  0  0  0  0  0  0  0  0  0  0
   -4.4063   -8.8929   -2.9271 C   0  0  0  0  0  0  0  0  0  0  0  0
   -3.5389   -9.4892   -3.8174 C   0  0  0  0  0  0  0  0  0  0  0  0
   -2.4563  -10.2190   -3.3516 C   0  0  0  0  0  0  0  0  0  0  0  0
   -2.2352  -10.3493   -1.9894 C   0  0  0  0  0  0  0  0  0  0  0  0
   -3.0919   -9.7530   -1.0889 C   0  0  0  0  0  0  0  0  0  0  0  0
   -1.6129  -10.8053   -4.2291 F   0  0  0  0  0  0  0  0  0  0  0  0
   -3.1844   -7.0374   -0.1033 C   0  0  0  0  0  0  0  0  0  0  0  0
   -2.7793   -6.6843   -1.3223 C   0  0  0  0  0  0  0  0  0  0  0  0
   -1.3612   -6.2237   -1.5411 C   0  0  2  0  0  0  0  0  0  0  0  0
   -1.3622   -5.1778   -1.8480 H   0  0  0  0  0  0  0  0  0  0  0  0
   -0.7112   -7.0752   -2.6335 C   0  0  0  0  0  0  0  0  0  0  0  0
    0.6840   -6.5291   -2.9433 C   0  0  2  0  0  0  0  0  0  0  0  0
    0.6116   -5.4725   -3.2012 H   0  0  0  0  0  0  0  0  0  0  0  0
    1.2843   -7.3013   -4.1198 C   0  0  0  0  0  0  0  0  0  0  0  0
    2.6046   -6.6847   -4.5042 C   0  0  0  0  0  0  0  0  0  0  0  0
    3.0225   -5.7260   -3.8991 O   0  0  0  0  0  0  0  0  0  0  0  0
    1.5214   -6.6829   -1.7956 O   0  0  0  0  0  0  0  0  0  0  0  0
   -0.6223   -6.3628   -0.3258 O   0  0  0  0  0  0  0  0  0  0  0  0
   -4.4444   -6.5717    2.4441 C   0  0  0  0  0  0  0  0  0  0  0  0
   -5.5369   -5.1654    0.7146 C   0  0  0  0  0  0  0  0  0  0  0  0
   -7.1998   -6.9598   -1.9491 C   0  0  0  0  0  0  0  0  0  0  0  0
   -8.3090   -5.9304   -2.1750 C   0  0  0  0  0  0  0  0  0  0  0  0
   -8.0701  -10.0992   -2.2718 H   0  0  0  0  0  0  0  0  0  0  0  0
   -9.7780   -9.7330   -2.6141 H   0  0  0  0  0  0  0  0  0  0  0  0
   -8.5017   -8.6211   -3.1646 H   0  0  0  0  0  0  0  0  0  0  0  0
   -9.1463   -9.2272   -0.2441 H   0  0  0  0  0  0  0  0  0  0  0  0
   -9.6907   -7.7807   -1.1270 H   0  0  0  0  0  0  0  0  0  0  0  0
   -8.6909   -7.2585    0.9598 H   0  0  0  0  0  0  0  0  0  0  0  0
   -7.7812   -5.9488    0.2525 H   0  0  0  0  0  0  0  0  0  0  0  0
   -6.4805   -8.3689    1.6491 H   0  0  0  0  0  0  0  0  0  0  0  0
   -6.9836   -6.9163    2.5182 H   0  0  0  0  0  0  0  0  0  0  0  0
   -6.6682   -9.4545    0.3798 H   0  0  0  0  0  0  0  0  0  0  0  0
   -6.5988   -9.6562   -1.3635 H   0  0  0  0  0  0  0  0  0  0  0  0
   -5.2521   -8.3286   -3.2911 H   0  0  0  0  0  0  0  0  0  0  0  0
   -3.7056   -9.3910   -4.8799 H   0  0  0  0  0  0  0  0  0  0  0  0
   -1.3897  -10.9189   -1.6328 H   0  0  0  0  0  0  0  0  0  0  0  0
   -2.9184   -9.8550   -0.0278 H   0  0  0  0  0  0  0  0  0  0  0  0
   -2.4787   -7.0635    0.7138 H   0  0  0  0  0  0  0  0  0  0  0  0
   -3.4672   -6.7282   -2.1537 H   0  0  0  0  0  0  0  0  0  0  0  0
   -1.3237   -7.0397   -3.5344 H   0  0  0  0  0  0  0  0  0  0  0  0
   -0.6297   -8.1065   -2.2900 H   0  0  0  0  0  0  0  0  0  0  0  0
    0.6021   -7.2578   -4.9689 H   0  0  0  0  0  0  0  0  0  0  0  0
    1.4391   -8.3409   -3.8310 H   0  0  0  0  0  0  0  0  0  0  0  0
    1.6311   -7.5999   -1.5089 H   0  0  0  0  0  0  0  0  0  0  0  0
   -0.5796   -7.2698    0.0069 H   0  0  0  0  0  0  0  0  0  0  0  0
   -3.5271   -6.0213    2.2350 H   0  0  0  0  0  0  0  0  0  0  0  0
   -4.9834   -6.0843    3.2565 H   0  0  0  0  0  0  0  0  0  0  0  0
   -4.1973   -7.5931    2.7333 H   0  0  0  0  0  0  0  0  0  0  0  0
   -6.1246   -5.1666   -0.2034 H   0  0  0  0  0  0  0  0  0  0  0  0
   -6.0666   -4.6044    1.4845 H   0  0  0  0  0  0  0  0  0  0  0  0
   -4.5696   -4.6995    0.5262 H   0  0  0  0  0  0  0  0  0  0  0  0
   -6.2611   -6.4440   -1.7471 H   0  0  0  0  0  0  0  0  0  0  0  0
   -7.0905   -7.5776   -2.8404 H   0  0  0  0  0  0  0  0  0  0  0  0
   -9.2654   -6.4433   -2.2768 H   0  0  0  0  0  0  0  0  0  0  0  0
   -8.3509   -5.2490   -1.3253 H   0  0  0  0  0  0  0  0  0  0  0  0
   -8.1010   -5.3657   -3.0837 H   0  0  0  0  0  0  0  0  0  0  0  0
    3.3162   -7.2006   -5.5186 O   0  5  0  0  0  0  0  0  0  0  0  0
  1  2  1  0  0  0  0
  1 33  1  0  0  0  0
  1 34  1  0  0  0  0
  1 35  1  0  0  0  0
  2  3  1  0  0  0  0
  2 36  1  0  0  0  0
  2 37  1  0  0  0  0
  3  9  1  0  0  0  0
  3  4  1  0  0  0  0
  3 31  1  0  0  0  0
  4  5  1  0  0  0  0
  4 38  1  0  0  0  0
  4 39  1  0  0  0  0
  5  6  1  0  0  0  0
  5 40  1  0  0  0  0
  5 41  1  0  0  0  0
  6  7  1  0  0  0  0
  6 29  1  0  0  0  0
  6 30  1  0  0  0  0
  7  8  2  0  0  0  0
  7 17  1  0  0  0  0
  8  9  1  0  0  0  0
  8 10  1  0  0  0  0
  9 42  1  0  0  0  0
  9 43  1  0  0  0  0
 10 15  2  0  0  0  0
 10 11  1  0  0  0  0
 11 12  2  0  0  0  0
 11 44  1  0  0  0  0
 12 13  1  0  0  0  0
 12 45  1  0  0  0  0
 13 14  2  0  0  0  0
 13 16  1  0  0  0  0
 14 15  1  0  0  0  0
 14 46  1  0  0  0  0
 15 47  1  0  0  0  0
 17 18  2  0  0  0  0
 17 48  1  0  0  0  0
 18 19  1  0  0  0  0
 18 49  1  0  0  0  0
 19 20  1  0  0  0  0
 19 21  1  0  0  0  0
 19 28  1  0  0  0  0
 21 22  1  0  0  0  0
 21 50  1  0  0  0  0
 21 51  1  0  0  0  0
 22 23  1  0  0  0  0
 22 24  1  0  0  0  0
 22 27  1  0  0  0  0
 24 25  1  0  0  0  0
 24 52  1  0  0  0  0
 24 53  1  0  0  0  0
 25 26  2  0  0  0  0
 25 67  1  0  0  0  0
 27 54  1  0  0  0  0
 28 55  1  0  0  0  0
 29 56  1  0  0  0  0
 29 57  1  0  0  0  0
 29 58  1  0  0  0  0
 30 59  1  0  0  0  0
 30 60  1  0  0  0  0
 30 61  1  0  0  0  0
 31 32  1  0  0  0  0
 31 62  1  0  0  0  0
 31 63  1  0  0  0  0
 32 64  1  0  0  0  0
 32 65  1  0  0  0  0
 32 66  1  0  0  0  0
M  CHG  1  67  -1
M  END
$$$$
ZINC02051952
  -OEChem-08230709463D

 50 52  0     0  0  0  0  0  0999 V2000
   -2.5533    3.8671    0.0457 C   0  0  0  0  0  0  0  0  0  0  0  0
   -1.2370    3.1334    0.0297 C   0  0  0  0  0  0  0  0  0  0  0  0
   -1.2177    1.7507    0.0173 C   0  0  0  0  0  0  0  0  0  0  0  0
   -0.0126    1.0758    0.0080 C   0  0  0  0  0  0  0  0  0  0  0  0
    1.1791    1.7865    0.0004 C   0  0  0  0  0  0  0  0  0  0  0  0
    1.1570    3.1734    0.0076 C   0  0  0  0  0  0  0  0  0  0  0  0
   -0.0511    3.8437    0.0222 C   0  0  0  0  0  0  0  0  0  0  0  0
    2.4494    3.9483   -0.0001 C   0  0  0  0  0  0  0  0  0  0  0  0
    2.5048    4.8354   -1.2454 C   0  0  0  0  0  0  0  0  0  0  0  0
    2.5271    4.8229    1.2529 C   0  0  0  0  0  0  0  0  0  0  0  0
    2.3661    1.1248   -0.0145 O   0  0  0  0  0  0  0  0  0  0  0  0
    2.3128   -0.3032   -0.0216 C   0  0  0  0  0  0  0  0  0  0  0  0
    3.7351   -0.8666   -0.0382 C   0  0  0  0  0  0  0  0  0  0  0  0
    3.6676   -2.6753   -0.0472 S   0  0  0  0  0  0  0  0  0  0  0  0
    5.3901   -3.0458   -0.0656 C   0  0  0  0  0  0  0  0  0  0  0  0
    6.3519   -2.1556   -0.0696 N   0  0  0  0  0  0  0  0  0  0  0  0
    7.5560   -2.7850   -0.0846 C   0  0  0  0  0  0  0  0  0  0  0  0
    8.8769   -2.3294   -0.0949 C   0  0  0  0  0  0  0  0  0  0  0  0
    9.9129   -3.2362   -0.1095 C   0  0  0  0  0  0  0  0  0  0  0  0
    9.6554   -4.5991   -0.1149 C   0  0  0  0  0  0  0  0  0  0  0  0
    8.3568   -5.0650   -0.1054 C   0  0  0  0  0  0  0  0  0  0  0  0
    7.3011   -4.1662   -0.0902 C   0  0  0  0  0  0  0  0  0  0  0  0
    5.9227   -4.3040   -0.0720 N   0  0  0  0  0  0  0  0  0  0  0  0
    5.1753   -5.5641   -0.0649 C   0  0  0  0  0  0  0  0  0  0  0  0
    4.9046   -5.9955   -1.4832 C   0  0  0  0  0  0  0  0  0  0  0  0
    5.2958   -5.3199   -2.4054 O   0  0  0  0  0  0  0  0  0  0  0  0
   -2.8802    4.0492   -0.9780 H   0  0  0  0  0  0  0  0  0  0  0  0
   -3.2991    3.2641    0.5635 H   0  0  0  0  0  0  0  0  0  0  0  0
   -2.4325    4.8188    0.5632 H   0  0  0  0  0  0  0  0  0  0  0  0
   -2.1455    1.1980    0.0187 H   0  0  0  0  0  0  0  0  0  0  0  0
    0.0021   -0.0041    0.0020 H   0  0  0  0  0  0  0  0  0  0  0  0
   -0.0689    4.9236    0.0275 H   0  0  0  0  0  0  0  0  0  0  0  0
    3.2894    3.2538   -0.0111 H   0  0  0  0  0  0  0  0  0  0  0  0
    1.6647    5.5300   -1.2344 H   0  0  0  0  0  0  0  0  0  0  0  0
    3.4396    5.3960   -1.2510 H   0  0  0  0  0  0  0  0  0  0  0  0
    2.4494    4.2124   -2.1381 H   0  0  0  0  0  0  0  0  0  0  0  0
    1.6871    5.5174    1.2639 H   0  0  0  0  0  0  0  0  0  0  0  0
    2.4877    4.1909    2.1401 H   0  0  0  0  0  0  0  0  0  0  0  0
    3.4620    5.3834    1.2473 H   0  0  0  0  0  0  0  0  0  0  0  0
    1.7942   -0.6519    0.8715 H   0  0  0  0  0  0  0  0  0  0  0  0
    1.7773   -0.6424   -0.9084 H   0  0  0  0  0  0  0  0  0  0  0  0
    4.2537   -0.5179   -0.9313 H   0  0  0  0  0  0  0  0  0  0  0  0
    4.2706   -0.5275    0.8486 H   0  0  0  0  0  0  0  0  0  0  0  0
    9.0845   -1.2696   -0.0910 H   0  0  0  0  0  0  0  0  0  0  0  0
   10.9337   -2.8836   -0.1171 H   0  0  0  0  0  0  0  0  0  0  0  0
   10.4768   -5.3002   -0.1271 H   0  0  0  0  0  0  0  0  0  0  0  0
    8.1629   -6.1275   -0.1093 H   0  0  0  0  0  0  0  0  0  0  0  0
    5.7606   -6.3308    0.4427 H   0  0  0  0  0  0  0  0  0  0  0  0
    4.2298   -5.4227    0.4586 H   0  0  0  0  0  0  0  0  0  0  0  0
    4.2289   -7.1305   -1.7221 O   0  5  0  0  0  0  0  0  0  0  0  0
  1  2  1  0  0  0  0
  1 27  1  0  0  0  0
  1 28  1  0  0  0  0
  1 29  1  0  0  0  0
  2  7  2  0  0  0  0
  2  3  1  0  0  0  0
  3  4  2  0  0  0  0
  3 30  1  0  0  0  0
  4  5  1  0  0  0  0
  4 31  1  0  0  0  0
  5  6  2  0  0  0  0
  5 11  1  0  0  0  0
  6  7  1  0  0  0  0
  6  8  1  0  0  0  0
  7 32  1  0  0  0  0
  8  9  1  0  0  0  0
  8 10  1  0  0  0  0
  8 33  1  0  0  0  0
  9 34  1  0  0  0  0
  9 35  1  0  0  0  0
  9 36  1  0  0  0  0
 10 37  1  0  0  0  0
 10 38  1  0  0  0  0
 10 39  1  0  0  0  0
 11 12  1  0  0  0  0
 12 13  1  0  0  0  0
 12 40  1  0  0  0  0
 12 41  1  0  0  0  0
 13 14  1  0  0  0  0
 13 42  1  0  0  0  0
 13 43  1  0  0  0  0
 14 15  1  0  0  0  0
 15 23  1  0  0  0  0
 15 16  2  0  0  0  0
 16 17  1  0  0  0  0
 17 22  2  0  0  0  0
 17 18  1  0  0  0  0
 18 19  2  0  0  0  0
 18 44  1  0  0  0  0
 19 20  1  0  0  0  0
 19 45  1  0  0  0  0
 20 21  2  0  0  0  0
 20 46  1  0  0  0  0
 21 22  1  0  0  0  0
 21 47  1  0  0  0  0
 22 23  1  0  0  0  0
 23 24  1  0  0  0  0
 24 25  1  0  0  0  0
 24 48  1  0  0  0  0
 24 49  1  0  0  0  0
 25 26  2  0  0  0  0
 25 50  1  0  0  0  0
M  CHG  1  50  -1
M  END
$$$$
ZINC02060388
  -OEChem-08230709463D

 56 58  0     0  0  0  0  0  0999 V2000
   -7.5054    6.4363    0.0609 C   0  0  0  0  0  0  0  0  0  0  0  0
   -6.7997    6.5211    1.2466 C   0  0  0  0  0  0  0  0  0  0  0  0
   -5.4238    6.6525    1.2241 C   0  0  0  0  0  0  0  0  0  0  0  0
   -4.7536    6.6995    0.0160 C   0  0  0  0  0  0  0  0  0  0  0  0
   -5.4599    6.6205   -1.1697 C   0  0  0  0  0  0  0  0  0  0  0  0
   -6.8352    6.4834   -1.1472 C   0  0  0  0  0  0  0  0  0  0  0  0
   -3.2537    6.8432   -0.0085 C   0  0  0  0  0  0  0  0  0  0  0  0
   -2.6179    5.4770    0.0036 C   0  0  0  0  0  0  0  0  0  0  0  0
   -3.3142    4.4843    0.0295 O   0  0  0  0  0  0  0  0  0  0  0  0
   -1.2755    5.3582   -0.0145 N   0  0  0  0  0  0  0  0  0  0  0  0
   -0.6906    4.1012   -0.0033 C   0  0  0  0  0  0  0  0  0  0  0  0
    0.6651    3.7806   -0.0184 C   0  0  0  0  0  0  0  0  0  0  0  0
    1.0048    2.3778    0.0052 C   0  0  0  0  0  0  0  0  0  0  0  0
   -0.0184    1.5025    0.0103 C   0  0  0  0  0  0  0  0  0  0  0  0
   -1.4597    2.5532    0.0217 S   0  0  0  0  0  0  0  0  0  0  0  0
    0.0021   -0.0041    0.0020 C   0  0  0  0  0  0  0  0  0  0  0  0
    0.7313   -0.5592    1.2213 C   0  0  0  0  0  0  0  0  0  0  0  0
    0.7479   -2.0892    1.1452 C   0  0  0  0  0  0  0  0  0  0  0  0
    2.1914   -2.5880    1.0712 C   0  0  0  0  0  0  0  0  0  0  0  0
    2.8084   -2.1998   -0.2737 C   0  0  0  0  0  0  0  0  0  0  0  0
    4.0080   -1.2795   -0.0393 C   0  0  0  0  0  0  0  0  0  0  0  0
    4.4493   -0.6629   -1.3674 C   0  0  0  0  0  0  0  0  0  0  0  0
    4.2556    0.8530   -1.3241 C   0  0  0  0  0  0  0  0  0  0  0  0
    2.7606    1.1811   -1.2886 C   0  0  0  0  0  0  0  0  0  0  0  0
    2.4369    1.9126    0.0149 C   0  0  0  0  0  0  0  0  0  0  0  0
    1.6756    4.8408   -0.0599 C   0  0  0  0  0  0  0  0  0  0  0  0
    2.0754    5.2585   -1.1301 O   0  0  0  0  0  0  0  0  0  0  0  0
   -8.5803    6.3329    0.0785 H   0  0  0  0  0  0  0  0  0  0  0  0
   -7.3233    6.4843    2.1904 H   0  0  0  0  0  0  0  0  0  0  0  0
   -4.8725    6.7187    2.1504 H   0  0  0  0  0  0  0  0  0  0  0  0
   -4.9367    6.6617   -2.1136 H   0  0  0  0  0  0  0  0  0  0  0  0
   -7.3865    6.4168   -2.0735 H   0  0  0  0  0  0  0  0  0  0  0  0
   -2.9280    7.4033    0.8681 H   0  0  0  0  0  0  0  0  0  0  0  0
   -2.9544    7.3753   -0.9115 H   0  0  0  0  0  0  0  0  0  0  0  0
   -0.7186    6.1521   -0.0352 H   0  0  0  0  0  0  0  0  0  0  0  0
   -1.0322   -0.3673    0.0144 H   0  0  0  0  0  0  0  0  0  0  0  0
    0.4799   -0.3596   -0.9096 H   0  0  0  0  0  0  0  0  0  0  0  0
    1.7566   -0.1965    1.2450 H   0  0  0  0  0  0  0  0  0  0  0  0
    0.2164   -0.2499    2.1315 H   0  0  0  0  0  0  0  0  0  0  0  0
    0.2655   -2.4996    2.0326 H   0  0  0  0  0  0  0  0  0  0  0  0
    0.2054   -2.4108    0.2561 H   0  0  0  0  0  0  0  0  0  0  0  0
    2.7725   -2.1457    1.8799 H   0  0  0  0  0  0  0  0  0  0  0  0
    2.2028   -3.6750    1.1723 H   0  0  0  0  0  0  0  0  0  0  0  0
    3.1404   -3.1003   -0.7924 H   0  0  0  0  0  0  0  0  0  0  0  0
    2.0661   -1.6871   -0.8828 H   0  0  0  0  0  0  0  0  0  0  0  0
    3.7309   -0.4888    0.6569 H   0  0  0  0  0  0  0  0  0  0  0  0
    4.8306   -1.8590    0.3826 H   0  0  0  0  0  0  0  0  0  0  0  0
    5.5041   -0.8868   -1.5352 H   0  0  0  0  0  0  0  0  0  0  0  0
    3.8584   -1.0841   -2.1798 H   0  0  0  0  0  0  0  0  0  0  0  0
    4.7364    1.2566   -0.4333 H   0  0  0  0  0  0  0  0  0  0  0  0
    4.7027    1.3020   -2.2114 H   0  0  0  0  0  0  0  0  0  0  0  0
    2.5097    1.8202   -2.1357 H   0  0  0  0  0  0  0  0  0  0  0  0
    2.1857    0.2595   -1.3462 H   0  0  0  0  0  0  0  0  0  0  0  0
    2.5970    1.2407    0.8602 H   0  0  0  0  0  0  0  0  0  0  0  0
    3.1193    2.7543    0.1282 H   0  0  0  0  0  0  0  0  0  0  0  0
    2.1624    5.3538    1.0887 O   0  5  0  0  0  0  0  0  0  0  0  0
  1  6  2  0  0  0  0
  1  2  1  0  0  0  0
  1 28  1  0  0  0  0
  2  3  2  0  0  0  0
  2 29  1  0  0  0  0
  3  4  1  0  0  0  0
  3 30  1  0  0  0  0
  4  5  2  0  0  0  0
  4  7  1  0  0  0  0
  5  6  1  0  0  0  0
  5 31  1  0  0  0  0
  6 32  1  0  0  0  0
  7  8  1  0  0  0  0
  7 33  1  0  0  0  0
  7 34  1  0  0  0  0
  8  9  2  0  0  0  0
  8 10  1  0  0  0  0
 10 11  1  0  0  0  0
 10 35  1  0  0  0  0
 11 15  1  0  0  0  0
 11 12  2  0  0  0  0
 12 13  1  0  0  0  0
 12 26  1  0  0  0  0
 13 25  1  0  0  0  0
 13 14  2  0  0  0  0
 14 15  1  0  0  0  0
 14 16  1  0  0  0  0
 16 17  1  0  0  0  0
 16 36  1  0  0  0  0
 16 37  1  0  0  0  0
 17 18  1  0  0  0  0
 17 38  1  0  0  0  0
 17 39  1  0  0  0  0
 18 19  1  0  0  0  0
 18 40  1  0  0  0  0
 18 41  1  0  0  0  0
 19 20  1  0  0  0  0
 19 42  1  0  0  0  0
 19 43  1  0  0  0  0
 20 21  1  0  0  0  0
 20 44  1  0  0  0  0
 20 45  1  0  0  0  0
 21 22  1  0  0  0  0
 21 46  1  0  0  0  0
 21 47  1  0  0  0  0
 22 23  1  0  0  0  0
 22 48  1  0  0  0  0
 22 49  1  0  0  0  0
 23 24  1  0  0  0  0
 23 50  1  0  0  0  0
 23 51  1  0  0  0  0
 24 25  1  0  0  0  0
 24 52  1  0  0  0  0
 24 53  1  0  0  0  0
 25 54  1  0  0  0  0
 25 55  1  0  0  0  0
 26 27  2  0  0  0  0
 26 56  1  0  0  0  0
M  CHG  1  56  -1
M  END
$$$$
ZINC02077904
  -OEChem-08230709463D

 52 54  0     0  0  0  0  0  0999 V2000
    0.1335   -6.8792    2.7729 C   0  0  0  0  0  0  0  0  0  0  0  0
    0.1208   -6.3483    1.3380 C   0  0  0  0  0  0  0  0  0  0  0  0
    0.1044   -4.8186    1.3604 C   0  0  0  0  0  0  0  0  0  0  0  0
    0.0917   -4.2876   -0.0745 C   0  0  0  0  0  0  0  0  0  0  0  0
    0.0755   -2.7809   -0.0524 C   0  0  0  0  0  0  0  0  0  0  0  0
   -1.1434   -2.1062   -0.0369 C   0  0  0  0  0  0  0  0  0  0  0  0
   -1.1937   -0.7463   -0.0168 C   0  0  0  0  0  0  0  0  0  0  0  0
    0.0020   -0.0039   -0.0116 C   0  0  0  0  0  0  0  0  0  0  0  0
    1.2392   -0.6961   -0.0278 C   0  0  0  0  0  0  0  0  0  0  0  0
    1.2539   -2.0949   -0.0483 C   0  0  0  0  0  0  0  0  0  0  0  0
    2.4787    0.0816   -0.0222 C   0  0  0  0  0  0  0  0  0  0  0  0
    2.3629    1.4645   -0.0010 C   0  0  0  0  0  0  0  0  0  0  0  0
    1.0869    2.0487    0.0157 C   0  0  0  0  0  0  0  0  0  0  0  0
   -0.0160    1.3296    0.0094 N   0  0  0  0  0  0  0  0  0  0  0  0
    0.9772    3.5264    0.0393 C   0  0  0  0  0  0  0  0  0  0  0  0
    2.1242    4.3136   -0.0587 C   0  0  0  0  0  0  0  0  0  0  0  0
    2.0212    5.6890   -0.0371 C   0  0  0  0  0  0  0  0  0  0  0  0
    0.7778    6.2923    0.0826 C   0  0  0  0  0  0  0  0  0  0  0  0
   -0.3714    5.5111    0.1813 C   0  0  0  0  0  0  0  0  0  0  0  0
   -0.2738    4.1321    0.1538 C   0  0  0  0  0  0  0  0  0  0  0  0
   -1.5894    6.1047    0.2980 O   0  0  0  0  0  0  0  0  0  0  0  0
   -2.7247    5.2423    0.3947 C   0  0  0  0  0  0  0  0  0  0  0  0
    0.6805    7.6478    0.1030 O   0  0  0  0  0  0  0  0  0  0  0  0
    1.8987    8.3873   -0.0029 C   0  0  0  0  0  0  0  0  0  0  0  0
    3.8007   -0.5790   -0.0390 C   0  0  0  0  0  0  0  0  0  0  0  0
    3.8765   -1.7882    0.0463 O   0  0  0  0  0  0  0  0  0  0  0  0
   -2.5240   -0.0385    0.0006 C   0  0  0  0  0  0  0  0  0  0  0  0
    1.0221   -6.5138    3.2877 H   0  0  0  0  0  0  0  0  0  0  0  0
   -0.7577   -6.5331    3.2963 H   0  0  0  0  0  0  0  0  0  0  0  0
    0.1452   -7.9691    2.7570 H   0  0  0  0  0  0  0  0  0  0  0  0
   -0.7678   -6.7137    0.8233 H   0  0  0  0  0  0  0  0  0  0  0  0
    1.0121   -6.6945    0.8146 H   0  0  0  0  0  0  0  0  0  0  0  0
    0.9930   -4.4531    1.8752 H   0  0  0  0  0  0  0  0  0  0  0  0
   -0.7869   -4.4724    1.8838 H   0  0  0  0  0  0  0  0  0  0  0  0
   -0.7969   -4.6530   -0.5892 H   0  0  0  0  0  0  0  0  0  0  0  0
    0.9829   -4.6338   -0.5979 H   0  0  0  0  0  0  0  0  0  0  0  0
   -2.0635   -2.6716   -0.0409 H   0  0  0  0  0  0  0  0  0  0  0  0
    2.1929   -2.6282   -0.0605 H   0  0  0  0  0  0  0  0  0  0  0  0
    3.2466    2.0854    0.0044 H   0  0  0  0  0  0  0  0  0  0  0  0
    3.0933    3.8463   -0.1519 H   0  0  0  0  0  0  0  0  0  0  0  0
    2.9102    6.2973   -0.1137 H   0  0  0  0  0  0  0  0  0  0  0  0
   -1.1643    3.5252    0.2250 H   0  0  0  0  0  0  0  0  0  0  0  0
   -2.7862    4.6209   -0.4987 H   0  0  0  0  0  0  0  0  0  0  0  0
   -2.6237    4.6058    1.2738 H   0  0  0  0  0  0  0  0  0  0  0  0
   -3.6304    5.8424    0.4828 H   0  0  0  0  0  0  0  0  0  0  0  0
    2.3913    8.1432   -0.9441 H   0  0  0  0  0  0  0  0  0  0  0  0
    1.6796    9.4546    0.0264 H   0  0  0  0  0  0  0  0  0  0  0  0
    2.5545    8.1281    0.8283 H   0  0  0  0  0  0  0  0  0  0  0  0
   -2.8499    0.1478   -1.0227 H   0  0  0  0  0  0  0  0  0  0  0  0
   -3.2602   -0.6612    0.5087 H   0  0  0  0  0  0  0  0  0  0  0  0
   -2.4240    0.9099    0.5285 H   0  0  0  0  0  0  0  0  0  0  0  0
    4.9216    0.1602   -0.1488 O   0  5  0  0  0  0  0  0  0  0  0  0
  1  2  1  0  0  0  0
  1 28  1  0  0  0  0
  1 29  1  0  0  0  0
  1 30  1  0  0  0  0
  2  3  1  0  0  0  0
  2 31  1  0  0  0  0
  2 32  1  0  0  0  0
  3  4  1  0  0  0  0
  3 33  1  0  0  0  0
  3 34  1  0  0  0  0
  4  5  1  0  0  0  0
  4 35  1  0  0  0  0
  4 36  1  0  0  0  0
  5 10  2  0  0  0  0
  5  6  1  0  0  0  0
  6  7  2  0  0  0  0
  6 37  1  0  0  0  0
  7  8  1  0  0  0  0
  7 27  1  0  0  0  0
  8 14  2  0  0  0  0
  8  9  1  0  0  0  0
  9 10  1  0  0  0  0
  9 11  2  0  0  0  0
 10 38  1  0  0  0  0
 11 12  1  0  0  0  0
 11 25  1  0  0  0  0
 12 13  2  0  0  0  0
 12 39  1  0  0  0  0
 13 14  1  0  0  0  0
 13 15  1  0  0  0  0
 15 20  2  0  0  0  0
 15 16  1  0  0  0  0
 16 17  2  0  0  0  0
 16 40  1  0  0  0  0
 17 18  1  0  0  0  0
 17 41  1  0  0  0  0
 18 19  2  0  0  0  0
 18 23  1  0  0  0  0
 19 20  1  0  0  0  0
 19 21  1  0  0  0  0
 20 42  1  0  0  0  0
 21 22  1  0  0  0  0
 22 43  1  0  0  0  0
 22 44  1  0  0  0  0
 22 45  1  0  0  0  0
 23 24  1  0  0  0  0
 24 46  1  0  0  0  0
 24 47  1  0  0  0  0
 24 48  1  0  0  0  0
 25 26  2  0  0  0  0
 25 52  1  0  0  0  0
 27 49  1  0  0  0  0
 27 50  1  0  0  0  0
 27 51  1  0  0  0  0
M  CHG  1  52  -1
M  END
$$$$
ZINC02085555
  -OEChem-08230709463D

 55 58  0     1  0  0  0  0  0999 V2000
    2.9731    0.3082    7.7558 C   0  0  0  0  0  0  0  0  0  0  0  0
    3.1710    1.2448    6.5623 C   0  0  0  0  0  0  0  0  0  0  0  0
    3.6904    0.4442    5.3664 C   0  0  0  0  0  0  0  0  0  0  0  0
    3.8783    1.3331    4.2337 O   0  0  0  0  0  0  0  0  0  0  0  0
    4.3352    0.7808    3.0911 C   0  0  0  0  0  0  0  0  0  0  0  0
    4.5700   -0.4118    3.0435 O   0  0  0  0  0  0  0  0  0  0  0  0
    4.5485    1.6169    1.9080 C   0  0  0  0  0  0  0  0  0  0  0  0
    5.8326    2.2595    1.6608 C   0  0  0  0  0  0  0  0  0  0  0  0
    5.8861    3.0123    0.5413 C   0  0  0  0  0  0  0  0  0  0  0  0
    4.2768    2.8640   -0.1858 S   0  0  0  0  0  0  0  0  0  0  0  0
    3.5365    1.8209    0.9817 C   0  0  0  0  0  0  0  0  0  0  0  0
    2.2452    1.3174    0.9914 N   0  0  0  0  0  0  0  0  0  0  0  0
    1.3913    1.6332   -0.0025 C   0  0  0  0  0  0  0  0  0  0  0  0
    1.7529    2.3579   -0.9052 O   0  0  0  0  0  0  0  0  0  0  0  0
   -0.0127    1.0858    0.0080 C   0  0  2  0  0  0  0  0  0  0  0  0
    0.0021   -0.0041    0.0020 H   0  0  0  0  0  0  0  0  0  0  0  0
   -0.8236    1.6307   -1.2107 C   0  0  2  0  0  0  0  0  0  0  0  0
   -0.3157    1.6136   -2.1750 H   0  0  0  0  0  0  0  0  0  0  0  0
   -1.2688    3.0325   -0.6492 C   0  0  0  0  0  0  0  0  0  0  0  0
   -1.9802    2.4092    0.6071 C   0  0  2  0  0  0  0  0  0  0  0  0
   -2.5106    3.0912    1.2717 H   0  0  0  0  0  0  0  0  0  0  0  0
   -0.7933    1.6128    1.2370 C   0  0  1  0  0  0  0  0  0  0  0  0
   -0.1649    2.2717    1.8363 H   0  0  0  0  0  0  0  0  0  0  0  0
   -1.3070    0.4667    2.0697 C   0  0  0  0  0  0  0  0  0  0  0  0
   -1.0834   -0.6721    1.7335 O   0  0  0  0  0  0  0  0  0  0  0  0
   -2.8285    1.3325   -0.0806 C   0  0  0  0  0  0  0  0  0  0  0  0
   -2.1641    0.8839   -1.1267 C   0  0  0  0  0  0  0  0  0  0  0  0
    7.0440    3.8116    0.0306 C   0  0  0  0  0  0  0  0  0  0  0  0
    8.3064    2.9392    0.0420 C   0  0  0  0  0  0  0  0  0  0  0  0
    8.9870    3.0937    1.3985 C   0  0  0  0  0  0  0  0  0  0  0  0
    7.9406    3.3085    2.4901 C   0  0  0  0  0  0  0  0  0  0  0  0
    7.0244    2.0943    2.5954 C   0  0  0  0  0  0  0  0  0  0  0  0
    2.2505   -0.4651    7.4949 H   0  0  0  0  0  0  0  0  0  0  0  0
    3.9245   -0.1562    8.0150 H   0  0  0  0  0  0  0  0  0  0  0  0
    2.6031    0.8786    8.6078 H   0  0  0  0  0  0  0  0  0  0  0  0
    3.8936    2.0181    6.8233 H   0  0  0  0  0  0  0  0  0  0  0  0
    2.2196    1.7092    6.3031 H   0  0  0  0  0  0  0  0  0  0  0  0
    2.9678   -0.3291    5.1055 H   0  0  0  0  0  0  0  0  0  0  0  0
    4.6418   -0.0202    5.6256 H   0  0  0  0  0  0  0  0  0  0  0  0
    1.9560    0.7378    1.7134 H   0  0  0  0  0  0  0  0  0  0  0  0
   -1.9657    3.5456   -1.3119 H   0  0  0  0  0  0  0  0  0  0  0  0
   -0.4200    3.6608   -0.3795 H   0  0  0  0  0  0  0  0  0  0  0  0
   -3.8048    0.9985    0.2382 H   0  0  0  0  0  0  0  0  0  0  0  0
   -2.5037    0.1200   -1.8105 H   0  0  0  0  0  0  0  0  0  0  0  0
    6.8381    4.1405   -0.9879 H   0  0  0  0  0  0  0  0  0  0  0  0
    7.1962    4.6811    0.6701 H   0  0  0  0  0  0  0  0  0  0  0  0
    8.0329    1.8957   -0.1146 H   0  0  0  0  0  0  0  0  0  0  0  0
    8.9838    3.2635   -0.7481 H   0  0  0  0  0  0  0  0  0  0  0  0
    9.5604    2.1935    1.6197 H   0  0  0  0  0  0  0  0  0  0  0  0
    9.6601    3.9505    1.3695 H   0  0  0  0  0  0  0  0  0  0  0  0
    8.4426    3.4651    3.4449 H   0  0  0  0  0  0  0  0  0  0  0  0
    7.3453    4.1895    2.2504 H   0  0  0  0  0  0  0  0  0  0  0  0
    7.5791    1.1974    2.3195 H   0  0  0  0  0  0  0  0  0  0  0  0
    6.6677    1.9980    3.6209 H   0  0  0  0  0  0  0  0  0  0  0  0
   -2.0129    0.7109    3.1849 O   0  5  0  0  0  0  0  0  0  0  0  0
  1  2  1  0  0  0  0
  1 33  1  0  0  0  0
  1 34  1  0  0  0  0
  1 35  1  0  0  0  0
  2  3  1  0  0  0  0
  2 36  1  0  0  0  0
  2 37  1  0  0  0  0
  3  4  1  0  0  0  0
  3 38  1  0  0  0  0
  3 39  1  0  0  0  0
  4  5  1  0  0  0  0
  5  6  2  0  0  0  0
  5  7  1  0  0  0  0
  7 11  2  0  0  0  0
  7  8  1  0  0  0  0
  8 32  1  0  0  0  0
  8  9  2  0  0  0  0
  9 10  1  0  0  0  0
  9 28  1  0  0  0  0
 10 11  1  0  0  0  0
 11 12  1  0  0  0  0
 12 13  1  0  0  0  0
 12 40  1  0  0  0  0
 13 14  2  0  0  0  0
 13 15  1  0  0  0  0
 15 16  1  0  0  0  0
 15 22  1  0  0  0  0
 15 17  1  0  0  0  0
 17 18  1  0  0  0  0
 17 27  1  0  0  0  0
 17 19  1  0  0  0  0
 19 20  1  0  0  0  0
 19 41  1  0  0  0  0
 19 42  1  0  0  0  0
 20 21  1  0  0  0  0
 20 22  1  0  0  0  0
 20 26  1  0  0  0  0
 22 23  1  0  0  0  0
 22 24  1  0  0  0  0
 24 25  2  0  0  0  0
 24 55  1  0  0  0  0
 26 27  2  0  0  0  0
 26 43  1  0  0  0  0
 27 44  1  0  0  0  0
 28 29  1  0  0  0  0
 28 45  1  0  0  0  0
 28 46  1  0  0  0  0
 29 30  1  0  0  0  0
 29 47  1  0  0  0  0
 29 48  1  0  0  0  0
 30 31  1  0  0  0  0
 30 49  1  0  0  0  0
 30 50  1  0  0  0  0
 31 32  1  0  0  0  0
 31 51  1  0  0  0  0
 31 52  1  0  0  0  0
 32 53  1  0  0  0  0
 32 54  1  0  0  0  0
M  CHG  1  55  -1
M  END
$$$$
ZINC02086419
  -OEChem-08230709463D

 55 58  0     1  0  0  0  0  0999 V2000
    2.0495   -1.1933    7.8177 C   0  0  0  0  0  0  0  0  0  0  0  0
    2.9494   -1.0810    6.5855 C   0  0  0  0  0  0  0  0  0  0  0  0
    2.3413   -1.8854    5.4348 C   0  0  0  0  0  0  0  0  0  0  0  0
    3.1954   -1.7789    4.2654 O   0  0  0  0  0  0  0  0  0  0  0  0
    2.7990   -2.4353    3.1558 C   0  0  0  0  0  0  0  0  0  0  0  0
    1.7671   -3.0793    3.1660 O   0  0  0  0  0  0  0  0  0  0  0  0
    3.6109   -2.3728    1.9387 C   0  0  0  0  0  0  0  0  0  0  0  0
    4.6564   -3.3484    1.6787 C   0  0  0  0  0  0  0  0  0  0  0  0
    5.3336   -3.1719    0.5237 C   0  0  0  0  0  0  0  0  0  0  0  0
    4.5991   -1.7420   -0.2181 S   0  0  0  0  0  0  0  0  0  0  0  0
    3.4081   -1.3816    0.9875 C   0  0  0  0  0  0  0  0  0  0  0  0
    2.4817   -0.3506    1.0018 N   0  0  0  0  0  0  0  0  0  0  0  0
    2.4364    0.5289   -0.0184 C   0  0  0  0  0  0  0  0  0  0  0  0
    3.2062    0.4183   -0.9490 O   0  0  0  0  0  0  0  0  0  0  0  0
    1.4292    1.6498   -0.0027 C   0  0  1  0  0  0  0  0  0  0  0  0
    1.5924    2.3010    0.8560 H   0  0  0  0  0  0  0  0  0  0  0  0
    1.4965    2.4670   -1.3321 C   0  0  1  0  0  0  0  0  0  0  0  0
    2.4927    2.7326   -1.6857 H   0  0  0  0  0  0  0  0  0  0  0  0
    0.6162    1.5599   -2.2677 C   0  0  0  0  0  0  0  0  0  0  0  0
   -0.6337    1.6338   -1.3163 C   0  0  1  0  0  0  0  0  0  0  0  0
   -1.5503    1.1513   -1.6556 H   0  0  0  0  0  0  0  0  0  0  0  0
   -0.0127    1.0858    0.0080 C   0  0  2  0  0  0  0  0  0  0  0  0
    0.0021   -0.0041    0.0020 H   0  0  0  0  0  0  0  0  0  0  0  0
   -0.7727    1.5972    1.2046 C   0  0  0  0  0  0  0  0  0  0  0  0
   -0.2233    2.3124    2.0087 O   0  0  0  0  0  0  0  0  0  0  0  0
   -0.7045    3.1498   -1.0957 C   0  0  0  0  0  0  0  0  0  0  0  0
    0.5228    3.6299   -1.1048 C   0  0  0  0  0  0  0  0  0  0  0  0
    6.4571   -4.0113   -0.0019 C   0  0  0  0  0  0  0  0  0  0  0  0
    6.4848   -5.3299    0.7846 C   0  0  2  0  0  0  0  0  0  0  0  0
    5.6367   -5.9485    0.4907 H   0  0  0  0  0  0  0  0  0  0  0  0
    6.3958   -5.0141    2.2804 C   0  0  0  0  0  0  0  0  0  0  0  0
    4.9969   -4.4969    2.6205 C   0  0  0  0  0  0  0  0  0  0  0  0
    7.7903   -6.0730    0.4940 C   0  0  0  0  0  0  0  0  0  0  0  0
    1.0605   -0.8001    7.5823 H   0  0  0  0  0  0  0  0  0  0  0  0
    1.9641   -2.2396    8.1111 H   0  0  0  0  0  0  0  0  0  0  0  0
    2.4827   -0.6202    8.6375 H   0  0  0  0  0  0  0  0  0  0  0  0
    3.9384   -1.4743    6.8208 H   0  0  0  0  0  0  0  0  0  0  0  0
    3.0348   -0.0348    6.2920 H   0  0  0  0  0  0  0  0  0  0  0  0
    1.3523   -1.4922    5.1995 H   0  0  0  0  0  0  0  0  0  0  0  0
    2.2559   -2.9317    5.7283 H   0  0  0  0  0  0  0  0  0  0  0  0
    1.8660   -0.2622    1.7462 H   0  0  0  0  0  0  0  0  0  0  0  0
    0.4295    2.0187   -3.2387 H   0  0  0  0  0  0  0  0  0  0  0  0
    1.0112    0.5483   -2.3604 H   0  0  0  0  0  0  0  0  0  0  0  0
   -1.6071    3.7263   -0.9564 H   0  0  0  0  0  0  0  0  0  0  0  0
    0.7965    4.6665   -0.9743 H   0  0  0  0  0  0  0  0  0  0  0  0
    6.2969   -4.2181   -1.0600 H   0  0  0  0  0  0  0  0  0  0  0  0
    7.4020   -3.4843    0.1303 H   0  0  0  0  0  0  0  0  0  0  0  0
    6.5968   -5.9188    2.8541 H   0  0  0  0  0  0  0  0  0  0  0  0
    7.1336   -4.2529    2.5343 H   0  0  0  0  0  0  0  0  0  0  0  0
    4.2702   -5.2996    2.4955 H   0  0  0  0  0  0  0  0  0  0  0  0
    4.9783   -4.1444    3.6517 H   0  0  0  0  0  0  0  0  0  0  0  0
    8.6354   -5.4538    0.7949 H   0  0  0  0  0  0  0  0  0  0  0  0
    7.8080   -7.0085    1.0531 H   0  0  0  0  0  0  0  0  0  0  0  0
    7.8574   -6.2859   -0.5728 H   0  0  0  0  0  0  0  0  0  0  0  0
   -2.0600    1.2582    1.3772 O   0  5  0  0  0  0  0  0  0  0  0  0
  1  2  1  0  0  0  0
  1 34  1  0  0  0  0
  1 35  1  0  0  0  0
  1 36  1  0  0  0  0
  2  3  1  0  0  0  0
  2 37  1  0  0  0  0
  2 38  1  0  0  0  0
  3  4  1  0  0  0  0
  3 39  1  0  0  0  0
  3 40  1  0  0  0  0
  4  5  1  0  0  0  0
  5  6  2  0  0  0  0
  5  7  1  0  0  0  0
  7 11  2  0  0  0  0
  7  8  1  0  0  0  0
  8 32  1  0  0  0  0
  8  9  2  0  0  0  0
  9 10  1  0  0  0  0
  9 28  1  0  0  0  0
 10 11  1  0  0  0  0
 11 12  1  0  0  0  0
 12 13  1  0  0  0  0
 12 41  1  0  0  0  0
 13 14  2  0  0  0  0
 13 15  1  0  0  0  0
 15 16  1  0  0  0  0
 15 22  1  0  0  0  0
 15 17  1  0  0  0  0
 17 18  1  0  0  0  0
 17 27  1  0  0  0  0
 17 19  1  0  0  0  0
 19 20  1  0  0  0  0
 19 42  1  0  0  0  0
 19 43  1  0  0  0  0
 20 21  1  0  0  0  0
 20 22  1  0  0  0  0
 20 26  1  0  0  0  0
 22 23  1  0  0  0  0
 22 24  1  0  0  0  0
 24 25  2  0  0  0  0
 24 55  1  0  0  0  0
 26 27  2  0  0  0  0
 26 44  1  0  0  0  0
 27 45  1  0  0  0  0
 28 29  1  0  0  0  0
 28 46  1  0  0  0  0
 28 47  1  0  0  0  0
 29 30  1  0  0  0  0
 29 31  1  0  0  0  0
 29 33  1  0  0  0  0
 31 32  1  0  0  0  0
 31 48  1  0  0  0  0
 31 49  1  0  0  0  0
 32 50  1  0  0  0  0
 32 51  1  0  0  0  0
 33 52  1  0  0  0  0
 33 53  1  0  0  0  0
 33 54  1  0  0  0  0
M  CHG  1  55  -1
M  END
$$$$
ZINC02086583
  -OEChem-08230709463D

 51 53  0     1  0  0  0  0  0999 V2000
   -0.7219    0.6973    7.9592 C   0  0  0  0  0  0  0  0  0  0  0  0
   -1.1648    0.1831    6.5880 C   0  0  0  0  0  0  0  0  0  0  0  0
   -1.7403    1.3413    5.7705 C   0  0  0  0  0  0  0  0  0  0  0  0
   -2.1607    0.8533    4.4692 O   0  0  0  0  0  0  0  0  0  0  0  0
   -2.6944    1.7552    3.6201 C   0  0  0  0  0  0  0  0  0  0  0  0
   -2.8051    2.9182    3.9589 O   0  0  0  0  0  0  0  0  0  0  0  0
   -3.1405    1.3344    2.2904 C   0  0  0  0  0  0  0  0  0  0  0  0
   -2.2395    1.3580    1.1502 C   0  0  0  0  0  0  0  0  0  0  0  0
   -2.7780    0.9447   -0.0172 C   0  0  0  0  0  0  0  0  0  0  0  0
   -4.4524    0.5278    0.3787 S   0  0  0  0  0  0  0  0  0  0  0  0
   -4.4403    0.8972    2.0714 C   0  0  0  0  0  0  0  0  0  0  0  0
   -5.4764    0.7840    2.9851 N   0  0  0  0  0  0  0  0  0  0  0  0
   -6.6825    0.3356    2.5842 C   0  0  0  0  0  0  0  0  0  0  0  0
   -6.8613    0.0313    1.4239 O   0  0  0  0  0  0  0  0  0  0  0  0
   -7.8090    0.2125    3.5776 C   0  0  1  0  0  0  0  0  0  0  0  0
   -7.6083    0.8486    4.4398 H   0  0  0  0  0  0  0  0  0  0  0  0
   -9.1245    0.6323    2.9182 C   0  0  0  0  0  0  0  0  0  0  0  0
   -9.5421   -0.3893    1.9015 C   0  0  0  0  0  0  0  0  0  0  0  0
   -9.0715   -1.5940    1.8482 C   0  0  0  0  0  0  0  0  0  0  0  0
   -8.0352   -2.1342    2.7896 C   0  0  0  0  0  0  0  0  0  0  0  0
   -7.9382   -1.2467    4.0324 C   0  0  1  0  0  0  0  0  0  0  0  0
   -8.8375   -1.3637    4.6372 H   0  0  0  0  0  0  0  0  0  0  0  0
   -6.7284   -1.6336    4.8434 C   0  0  0  0  0  0  0  0  0  0  0  0
   -5.8500   -0.8277    5.0401 O   0  0  0  0  0  0  0  0  0  0  0  0
   -2.0957    0.8632   -1.3479 C   0  0  0  0  0  0  0  0  0  0  0  0
   -0.7933    1.6734   -1.2741 C   0  0  0  0  0  0  0  0  0  0  0  0
   -0.0405    1.2821    0.0008 C   0  0  0  0  0  0  0  0  0  0  0  0
   -0.7881    1.8095    1.2268 C   0  0  0  0  0  0  0  0  0  0  0  0
    0.0409    1.4652    7.8302 H   0  0  0  0  0  0  0  0  0  0  0  0
   -1.5790    1.1209    8.4827 H   0  0  0  0  0  0  0  0  0  0  0  0
   -0.3119   -0.1278    8.5416 H   0  0  0  0  0  0  0  0  0  0  0  0
   -1.9276   -0.5848    6.7170 H   0  0  0  0  0  0  0  0  0  0  0  0
   -0.3077   -0.2405    6.0646 H   0  0  0  0  0  0  0  0  0  0  0  0
   -0.9775    2.1092    5.6415 H   0  0  0  0  0  0  0  0  0  0  0  0
   -2.5974    1.7649    6.2940 H   0  0  0  0  0  0  0  0  0  0  0  0
   -5.3334    1.0274    3.9131 H   0  0  0  0  0  0  0  0  0  0  0  0
   -9.8986    0.7208    3.6805 H   0  0  0  0  0  0  0  0  0  0  0  0
   -8.9913    1.5966    2.4279 H   0  0  0  0  0  0  0  0  0  0  0  0
  -10.2816   -0.1017    1.1688 H   0  0  0  0  0  0  0  0  0  0  0  0
   -9.4479   -2.2511    1.0782 H   0  0  0  0  0  0  0  0  0  0  0  0
   -7.0683   -2.1589    2.2869 H   0  0  0  0  0  0  0  0  0  0  0  0
   -8.3130   -3.1450    3.0882 H   0  0  0  0  0  0  0  0  0  0  0  0
   -2.7439    1.2796   -2.1191 H   0  0  0  0  0  0  0  0  0  0  0  0
   -1.8683   -0.1770   -1.5809 H   0  0  0  0  0  0  0  0  0  0  0  0
   -1.0261    2.7380   -1.2488 H   0  0  0  0  0  0  0  0  0  0  0  0
   -0.1760    1.4530   -2.1451 H   0  0  0  0  0  0  0  0  0  0  0  0
    0.0313    0.1961    0.0600 H   0  0  0  0  0  0  0  0  0  0  0  0
    0.9615    1.7105   -0.0243 H   0  0  0  0  0  0  0  0  0  0  0  0
   -0.3308    1.4116    2.1327 H   0  0  0  0  0  0  0  0  0  0  0  0
   -0.7443    2.8986    1.2409 H   0  0  0  0  0  0  0  0  0  0  0  0
   -6.6267   -2.8736    5.3472 O   0  5  0  0  0  0  0  0  0  0  0  0
  1  2  1  0  0  0  0
  1 29  1  0  0  0  0
  1 30  1  0  0  0  0
  1 31  1  0  0  0  0
  2  3  1  0  0  0  0
  2 32  1  0  0  0  0
  2 33  1  0  0  0  0
  3  4  1  0  0  0  0
  3 34  1  0  0  0  0
  3 35  1  0  0  0  0
  4  5  1  0  0  0  0
  5  6  2  0  0  0  0
  5  7  1  0  0  0  0
  7 11  2  0  0  0  0
  7  8  1  0  0  0  0
  8 28  1  0  0  0  0
  8  9  2  0  0  0  0
  9 10  1  0  0  0  0
  9 25  1  0  0  0  0
 10 11  1  0  0  0  0
 11 12  1  0  0  0  0
 12 13  1  0  0  0  0
 12 36  1  0  0  0  0
 13 14  2  0  0  0  0
 13 15  1  0  0  0  0
 15 16  1  0  0  0  0
 15 21  1  0  0  0  0
 15 17  1  0  0  0  0
 17 18  1  0  0  0  0
 17 37  1  0  0  0  0
 17 38  1  0  0  0  0
 18 19  2  0  0  0  0
 18 39  1  0  0  0  0
 19 20  1  0  0  0  0
 19 40  1  0  0  0  0
 20 21  1  0  0  0  0
 20 41  1  0  0  0  0
 20 42  1  0  0  0  0
 21 22  1  0  0  0  0
 21 23  1  0  0  0  0
 23 24  2  0  0  0  0
 23 51  1  0  0  0  0
 25 26  1  0  0  0  0
 25 43  1  0  0  0  0
 25 44  1  0  0  0  0
 26 27  1  0  0  0  0
 26 45  1  0  0  0  0
 26 46  1  0  0  0  0
 27 28  1  0  0  0  0
 27 47  1  0  0  0  0
 27 48  1  0  0  0  0
 28 49  1  0  0  0  0
 28 50  1  0  0  0  0
M  CHG  1  51  -1
M  END
$$$$
ZINC02086584
  -OEChem-08230709463D

 51 53  0     1  0  0  0  0  0999 V2000
    2.7725   -6.3846   -3.9680 C   0  0  0  0  0  0  0  0  0  0  0  0
    3.0997   -5.1574   -3.1149 C   0  0  0  0  0  0  0  0  0  0  0  0
    2.5596   -3.9008   -3.8006 C   0  0  0  0  0  0  0  0  0  0  0  0
    2.8701   -2.7362   -2.9909 O   0  0  0  0  0  0  0  0  0  0  0  0
    2.4602   -1.5389   -3.4576 C   0  0  0  0  0  0  0  0  0  0  0  0
    1.8594   -1.4709   -4.5131 O   0  0  0  0  0  0  0  0  0  0  0  0
    2.7384   -0.3210   -2.6937 C   0  0  0  0  0  0  0  0  0  0  0  0
    1.8044    0.1730   -1.6957 C   0  0  0  0  0  0  0  0  0  0  0  0
    2.1823    1.3058   -1.0651 C   0  0  0  0  0  0  0  0  0  0  0  0
    3.7506    1.7183   -1.7754 S   0  0  0  0  0  0  0  0  0  0  0  0
    3.9044    0.4057   -2.8959 C   0  0  0  0  0  0  0  0  0  0  0  0
    4.9402    0.1440   -3.7790 N   0  0  0  0  0  0  0  0  0  0  0  0
    6.0028    0.9711   -3.8355 C   0  0  0  0  0  0  0  0  0  0  0  0
    6.0528    1.9443   -3.1135 O   0  0  0  0  0  0  0  0  0  0  0  0
    7.1290    0.6866   -4.7957 C   0  0  2  0  0  0  0  0  0  0  0  0
    6.7460    0.6740   -5.8161 H   0  0  0  0  0  0  0  0  0  0  0  0
    7.7602   -0.6667   -4.4617 C   0  0  0  0  0  0  0  0  0  0  0  0
    9.0382   -0.8442   -5.2280 C   0  0  0  0  0  0  0  0  0  0  0  0
    9.6863    0.1242   -5.7916 C   0  0  0  0  0  0  0  0  0  0  0  0
    9.2451    1.5583   -5.7659 C   0  0  0  0  0  0  0  0  0  0  0  0
    8.2062    1.7705   -4.6626 C   0  0  1  0  0  0  0  0  0  0  0  0
    8.6864    1.6920   -3.6872 H   0  0  0  0  0  0  0  0  0  0  0  0
    7.5762    3.1316   -4.8090 C   0  0  0  0  0  0  0  0  0  0  0  0
    6.3872    3.2296   -5.0003 O   0  0  0  0  0  0  0  0  0  0  0  0
    1.4282    2.0415   -0.0006 C   0  0  0  0  0  0  0  0  0  0  0  0
   -0.0187    1.5272    0.0104 C   0  0  0  0  0  0  0  0  0  0  0  0
    0.0021   -0.0041    0.0020 C   0  0  0  0  0  0  0  0  0  0  0  0
    0.4848   -0.5101   -1.3585 C   0  0  0  0  0  0  0  0  0  0  0  0
    3.1573   -7.2798   -3.4796 H   0  0  0  0  0  0  0  0  0  0  0  0
    1.6920   -6.4694   -4.0831 H   0  0  0  0  0  0  0  0  0  0  0  0
    3.2352   -6.2787   -4.9493 H   0  0  0  0  0  0  0  0  0  0  0  0
    4.1803   -5.0725   -2.9998 H   0  0  0  0  0  0  0  0  0  0  0  0
    2.6370   -5.2632   -2.1336 H   0  0  0  0  0  0  0  0  0  0  0  0
    1.4790   -3.9857   -3.9156 H   0  0  0  0  0  0  0  0  0  0  0  0
    3.0223   -3.7950   -4.7818 H   0  0  0  0  0  0  0  0  0  0  0  0
    4.9003   -0.6344   -4.3565 H   0  0  0  0  0  0  0  0  0  0  0  0
    7.9702   -0.7136   -3.3931 H   0  0  0  0  0  0  0  0  0  0  0  0
    7.0662   -1.4643   -4.7268 H   0  0  0  0  0  0  0  0  0  0  0  0
    9.4424   -1.8419   -5.3144 H   0  0  0  0  0  0  0  0  0  0  0  0
   10.6015   -0.1148   -6.3130 H   0  0  0  0  0  0  0  0  0  0  0  0
    8.8072    1.8189   -6.7295 H   0  0  0  0  0  0  0  0  0  0  0  0
   10.1073    2.1983   -5.5783 H   0  0  0  0  0  0  0  0  0  0  0  0
    1.4365    3.1099   -0.2165 H   0  0  0  0  0  0  0  0  0  0  0  0
    1.8902    1.8589    0.9696 H   0  0  0  0  0  0  0  0  0  0  0  0
   -0.5423    1.8904   -0.8739 H   0  0  0  0  0  0  0  0  0  0  0  0
   -0.5253    1.8808    0.9085 H   0  0  0  0  0  0  0  0  0  0  0  0
    0.6755   -0.3614    0.7811 H   0  0  0  0  0  0  0  0  0  0  0  0
   -1.0028   -0.3809    0.1928 H   0  0  0  0  0  0  0  0  0  0  0  0
    0.6325   -1.5892   -1.3155 H   0  0  0  0  0  0  0  0  0  0  0  0
   -0.2561   -0.2707   -2.1213 H   0  0  0  0  0  0  0  0  0  0  0  0
    8.3359    4.2352   -4.7268 O   0  5  0  0  0  0  0  0  0  0  0  0
  1  2  1  0  0  0  0
  1 29  1  0  0  0  0
  1 30  1  0  0  0  0
  1 31  1  0  0  0  0
  2  3  1  0  0  0  0
  2 32  1  0  0  0  0
  2 33  1  0  0  0  0
  3  4  1  0  0  0  0
  3 34  1  0  0  0  0
  3 35  1  0  0  0  0
  4  5  1  0  0  0  0
  5  6  2  0  0  0  0
  5  7  1  0  0  0  0
  7 11  2  0  0  0  0
  7  8  1  0  0  0  0
  8 28  1  0  0  0  0
  8  9  2  0  0  0  0
  9 10  1  0  0  0  0
  9 25  1  0  0  0  0
 10 11  1  0  0  0  0
 11 12  1  0  0  0  0
 12 13  1  0  0  0  0
 12 36  1  0  0  0  0
 13 14  2  0  0  0  0
 13 15  1  0  0  0  0
 15 16  1  0  0  0  0
 15 21  1  0  0  0  0
 15 17  1  0  0  0  0
 17 18  1  0  0  0  0
 17 37  1  0  0  0  0
 17 38  1  0  0  0  0
 18 19  2  0  0  0  0
 18 39  1  0  0  0  0
 19 20  1  0  0  0  0
 19 40  1  0  0  0  0
 20 21  1  0  0  0  0
 20 41  1  0  0  0  0
 20 42  1  0  0  0  0
 21 22  1  0  0  0  0
 21 23  1  0  0  0  0
 23 24  2  0  0  0  0
 23 51  1  0  0  0  0
 25 26  1  0  0  0  0
 25 43  1  0  0  0  0
 25 44  1  0  0  0  0
 26 27  1  0  0  0  0
 26 45  1  0  0  0  0
 26 46  1  0  0  0  0
 27 28  1  0  0  0  0
 27 47  1  0  0  0  0
 27 48  1  0  0  0  0
 28 49  1  0  0  0  0
 28 50  1  0  0  0  0
M  CHG  1  51  -1
M  END
$$$$
ZINC02086585
  -OEChem-08230709463D

 51 53  0     1  0  0  0  0  0999 V2000
   -3.6122    2.1641    9.0844 C   0  0  0  0  0  0  0  0  0  0  0  0
   -3.9191    1.3492    7.8264 C   0  0  0  0  0  0  0  0  0  0  0  0
   -4.3281    2.2936    6.6942 C   0  0  0  0  0  0  0  0  0  0  0  0
   -4.6192    1.5203    5.5003 O   0  0  0  0  0  0  0  0  0  0  0  0
   -4.9976    2.2073    4.4029 C   0  0  0  0  0  0  0  0  0  0  0  0
   -5.0816    3.4201    4.4435 O   0  0  0  0  0  0  0  0  0  0  0  0
   -5.3071    1.4930    3.1625 C   0  0  0  0  0  0  0  0  0  0  0  0
   -6.6548    1.0312    2.8746 C   0  0  0  0  0  0  0  0  0  0  0  0
   -6.8026    0.3862    1.6973 C   0  0  0  0  0  0  0  0  0  0  0  0
   -5.1881    0.3933    0.9710 S   0  0  0  0  0  0  0  0  0  0  0  0
   -4.3240    1.2311    2.2174 C   0  0  0  0  0  0  0  0  0  0  0  0
   -2.9792    1.5643    2.2584 N   0  0  0  0  0  0  0  0  0  0  0  0
   -2.1688    1.2228    1.2370 C   0  0  0  0  0  0  0  0  0  0  0  0
   -2.6163    0.6239    0.2821 O   0  0  0  0  0  0  0  0  0  0  0  0
   -0.7067    1.5851    1.2816 C   0  0  1  0  0  0  0  0  0  0  0  0
   -0.5963    2.6667    1.3591 H   0  0  0  0  0  0  0  0  0  0  0  0
   -0.0467    0.9125    2.4875 C   0  0  0  0  0  0  0  0  0  0  0  0
    1.4456    1.0437    2.3997 C   0  0  0  0  0  0  0  0  0  0  0  0
    2.0845    1.3468    1.3154 C   0  0  0  0  0  0  0  0  0  0  0  0
    1.4213    1.6198   -0.0028 C   0  0  0  0  0  0  0  0  0  0  0  0
   -0.0127    1.0858    0.0080 C   0  0  2  0  0  0  0  0  0  0  0  0
    0.0021   -0.0041    0.0020 H   0  0  0  0  0  0  0  0  0  0  0  0
   -0.7498    1.5891   -1.2063 C   0  0  0  0  0  0  0  0  0  0  0  0
   -1.7385    2.2708   -1.0733 O   0  0  0  0  0  0  0  0  0  0  0  0
   -8.0642   -0.1964    1.1388 C   0  0  0  0  0  0  0  0  0  0  0  0
   -9.0988   -0.2841    2.2702 C   0  0  0  0  0  0  0  0  0  0  0  0
   -9.1332    1.0551    3.0122 C   0  0  0  0  0  0  0  0  0  0  0  0
   -7.8403    1.2418    3.8083 C   0  0  0  0  0  0  0  0  0  0  0  0
   -2.7975    2.8582    8.8781 H   0  0  0  0  0  0  0  0  0  0  0  0
   -4.4998    2.7233    9.3805 H   0  0  0  0  0  0  0  0  0  0  0  0
   -3.3209    1.4913    9.8910 H   0  0  0  0  0  0  0  0  0  0  0  0
   -4.7338    0.6552    8.0327 H   0  0  0  0  0  0  0  0  0  0  0  0
   -3.0315    0.7900    7.5303 H   0  0  0  0  0  0  0  0  0  0  0  0
   -3.5133    2.9877    6.4878 H   0  0  0  0  0  0  0  0  0  0  0  0
   -5.2156    2.8529    6.9903 H   0  0  0  0  0  0  0  0  0  0  0  0
   -2.6212    2.0433    3.0222 H   0  0  0  0  0  0  0  0  0  0  0  0
   -0.3162   -0.1435    2.5048 H   0  0  0  0  0  0  0  0  0  0  0  0
   -0.3982    1.3901    3.4020 H   0  0  0  0  0  0  0  0  0  0  0  0
    2.0225    0.8743    3.2968 H   0  0  0  0  0  0  0  0  0  0  0  0
    3.1618    1.4067    1.3624 H   0  0  0  0  0  0  0  0  0  0  0  0
    1.9832    1.1301   -0.7982 H   0  0  0  0  0  0  0  0  0  0  0  0
    1.4052    2.6950   -0.1811 H   0  0  0  0  0  0  0  0  0  0  0  0
   -7.8654   -1.1931    0.7450 H   0  0  0  0  0  0  0  0  0  0  0  0
   -8.4440    0.4439    0.3427 H   0  0  0  0  0  0  0  0  0  0  0  0
   -8.8174   -1.0780    2.9619 H   0  0  0  0  0  0  0  0  0  0  0  0
  -10.0825   -0.4944    1.8502 H   0  0  0  0  0  0  0  0  0  0  0  0
   -9.9835    1.0697    3.6940 H   0  0  0  0  0  0  0  0  0  0  0  0
   -9.2340    1.8654    2.2901 H   0  0  0  0  0  0  0  0  0  0  0  0
   -7.8015    0.5134    4.6183 H   0  0  0  0  0  0  0  0  0  0  0  0
   -7.8069    2.2507    4.2195 H   0  0  0  0  0  0  0  0  0  0  0  0
   -0.3080    1.2800   -2.4355 O   0  5  0  0  0  0  0  0  0  0  0  0
  1  2  1  0  0  0  0
  1 29  1  0  0  0  0
  1 30  1  0  0  0  0
  1 31  1  0  0  0  0
  2  3  1  0  0  0  0
  2 32  1  0  0  0  0
  2 33  1  0  0  0  0
  3  4  1  0  0  0  0
  3 34  1  0  0  0  0
  3 35  1  0  0  0  0
  4  5  1  0  0  0  0
  5  6  2  0  0  0  0
  5  7  1  0  0  0  0
  7 11  2  0  0  0  0
  7  8  1  0  0  0  0
  8 28  1  0  0  0  0
  8  9  2  0  0  0  0
  9 10  1  0  0  0  0
  9 25  1  0  0  0  0
 10 11  1  0  0  0  0
 11 12  1  0  0  0  0
 12 13  1  0  0  0  0
 12 36  1  0  0  0  0
 13 14  2  0  0  0  0
 13 15  1  0  0  0  0
 15 16  1  0  0  0  0
 15 21  1  0  0  0  0
 15 17  1  0  0  0  0
 17 18  1  0  0  0  0
 17 37  1  0  0  0  0
 17 38  1  0  0  0  0
 18 19  2  0  0  0  0
 18 39  1  0  0  0  0
 19 20  1  0  0  0  0
 19 40  1  0  0  0  0
 20 21  1  0  0  0  0
 20 41  1  0  0  0  0
 20 42  1  0  0  0  0
 21 22  1  0  0  0  0
 21 23  1  0  0  0  0
 23 24  2  0  0  0  0
 23 51  1  0  0  0  0
 25 26  1  0  0  0  0
 25 43  1  0  0  0  0
 25 44  1  0  0  0  0
 26 27  1  0  0  0  0
 26 45  1  0  0  0  0
 26 46  1  0  0  0  0
 27 28  1  0  0  0  0
 27 47  1  0  0  0  0
 27 48  1  0  0  0  0
 28 49  1  0  0  0  0
 28 50  1  0  0  0  0
M  CHG  1  51  -1
M  END
$$$$
ZINC02088345
  -OEChem-08230709463D

 57 60  0     1  0  0  0  0  0999 V2000
    2.8309    7.4406   -2.7650 C   0  0  0  0  0  0  0  0  0  0  0  0
    2.3540    5.9881   -2.8231 C   0  0  0  0  0  0  0  0  0  0  0  0
    2.2638    5.4237   -1.4039 C   0  0  0  0  0  0  0  0  0  0  0  0
    1.8111    4.0451   -1.4591 O   0  0  0  0  0  0  0  0  0  0  0  0
    1.6775    3.3970   -0.2838 C   0  0  0  0  0  0  0  0  0  0  0  0
    1.9327    3.9692    0.7588 O   0  0  0  0  0  0  0  0  0  0  0  0
    1.2253    2.0043   -0.2629 C   0  0  0  0  0  0  0  0  0  0  0  0
    2.1715    0.9031   -0.3299 C   0  0  0  0  0  0  0  0  0  0  0  0
    1.6219   -0.3301   -0.3020 C   0  0  0  0  0  0  0  0  0  0  0  0
   -0.1220   -0.0465   -0.1895 S   0  0  0  0  0  0  0  0  0  0  0  0
   -0.1239    1.6861   -0.1789 C   0  0  0  0  0  0  0  0  0  0  0  0
   -1.2089    2.5458   -0.1095 N   0  0  0  0  0  0  0  0  0  0  0  0
   -2.4594    2.0483   -0.0380 C   0  0  0  0  0  0  0  0  0  0  0  0
   -2.6353    0.8483   -0.0345 O   0  0  0  0  0  0  0  0  0  0  0  0
   -3.6391    2.9830    0.0374 C   0  0  1  0  0  0  0  0  0  0  0  0
   -3.6649    3.6325   -0.8376 H   0  0  0  0  0  0  0  0  0  0  0  0
   -4.9671    2.1740    0.1532 C   0  0  2  0  0  0  0  0  0  0  0  0
   -5.0459    1.2938   -0.4847 H   0  0  0  0  0  0  0  0  0  0  0  0
   -6.0994    3.2750   -0.0117 C   0  0  0  0  0  0  0  0  0  0  0  0
   -6.0272    4.1015    1.2926 C   0  0  0  0  0  0  0  0  0  0  0  0
   -4.8735    3.4460    2.1114 C   0  0  1  0  0  0  0  0  0  0  0  0
   -4.8667    3.6598    3.1802 H   0  0  0  0  0  0  0  0  0  0  0  0
   -5.0241    1.9370    1.7068 C   0  0  0  0  0  0  0  0  0  0  0  0
   -3.5773    3.8253    1.3321 C   0  0  2  0  0  0  0  0  0  0  0  0
   -2.6937    3.5633    1.9141 H   0  0  0  0  0  0  0  0  0  0  0  0
   -3.5709    5.2958    1.0024 C   0  0  0  0  0  0  0  0  0  0  0  0
   -3.9969    5.6782   -0.0617 O   0  0  0  0  0  0  0  0  0  0  0  0
    2.3430   -1.6417   -0.3543 C   0  0  0  0  0  0  0  0  0  0  0  0
    3.8300   -1.3878   -0.0669 C   0  0  2  0  0  0  0  0  0  0  0  0
    3.9622   -1.1438    0.9872 H   0  0  0  0  0  0  0  0  0  0  0  0
    4.3055   -0.2147   -0.9288 C   0  0  0  0  0  0  0  0  0  0  0  0
    3.6811    1.0876   -0.4250 C   0  0  0  0  0  0  0  0  0  0  0  0
    4.6423   -2.6383   -0.4095 C   0  0  0  0  0  0  0  0  0  0  0  0
    3.8133    7.4819   -2.2944 H   0  0  0  0  0  0  0  0  0  0  0  0
    2.8952    7.8427   -3.7761 H   0  0  0  0  0  0  0  0  0  0  0  0
    2.1242    8.0321   -2.1830 H   0  0  0  0  0  0  0  0  0  0  0  0
    3.0608    5.3966   -3.4051 H   0  0  0  0  0  0  0  0  0  0  0  0
    1.3716    5.9468   -3.2937 H   0  0  0  0  0  0  0  0  0  0  0  0
    1.5570    6.0151   -0.8219 H   0  0  0  0  0  0  0  0  0  0  0  0
    3.2461    5.4650   -0.9334 H   0  0  0  0  0  0  0  0  0  0  0  0
   -1.0682    3.5056   -0.1123 H   0  0  0  0  0  0  0  0  0  0  0  0
   -7.0755    2.7993   -0.1066 H   0  0  0  0  0  0  0  0  0  0  0  0
   -5.9013    3.9098   -0.8753 H   0  0  0  0  0  0  0  0  0  0  0  0
   -6.9679    4.0323    1.8389 H   0  0  0  0  0  0  0  0  0  0  0  0
   -5.7926    5.1429    1.0721 H   0  0  0  0  0  0  0  0  0  0  0  0
   -4.1875    1.3338    2.0593 H   0  0  0  0  0  0  0  0  0  0  0  0
   -5.9819    1.5230    2.0219 H   0  0  0  0  0  0  0  0  0  0  0  0
    1.9338   -2.3159    0.3981 H   0  0  0  0  0  0  0  0  0  0  0  0
    2.2301   -2.0835   -1.3443 H   0  0  0  0  0  0  0  0  0  0  0  0
    4.0082   -0.3822   -1.9640 H   0  0  0  0  0  0  0  0  0  0  0  0
    5.3915   -0.1416   -0.8713 H   0  0  0  0  0  0  0  0  0  0  0  0
    3.9074    1.8948   -1.1217 H   0  0  0  0  0  0  0  0  0  0  0  0
    4.0821    1.3310    0.5589 H   0  0  0  0  0  0  0  0  0  0  0  0
    5.6982   -2.4504   -0.2149 H   0  0  0  0  0  0  0  0  0  0  0  0
    4.3024   -3.4720    0.2049 H   0  0  0  0  0  0  0  0  0  0  0  0
    4.5049   -2.8835   -1.4627 H   0  0  0  0  0  0  0  0  0  0  0  0
   -3.0921    6.1807    1.8908 O   0  5  0  0  0  0  0  0  0  0  0  0
  1  2  1  0  0  0  0
  1 34  1  0  0  0  0
  1 35  1  0  0  0  0
  1 36  1  0  0  0  0
  2  3  1  0  0  0  0
  2 37  1  0  0  0  0
  2 38  1  0  0  0  0
  3  4  1  0  0  0  0
  3 39  1  0  0  0  0
  3 40  1  0  0  0  0
  4  5  1  0  0  0  0
  5  6  2  0  0  0  0
  5  7  1  0  0  0  0
  7 11  2  0  0  0  0
  7  8  1  0  0  0  0
  8 32  1  0  0  0  0
  8  9  2  0  0  0  0
  9 10  1  0  0  0  0
  9 28  1  0  0  0  0
 10 11  1  0  0  0  0
 11 12  1  0  0  0  0
 12 13  1  0  0  0  0
 12 41  1  0  0  0  0
 13 14  2  0  0  0  0
 13 15  1  0  0  0  0
 15 16  1  0  0  0  0
 15 24  1  0  0  0  0
 15 17  1  0  0  0  0
 17 18  1  0  0  0  0
 17 23  1  0  0  0  0
 17 19  1  0  0  0  0
 19 20  1  0  0  0  0
 19 42  1  0  0  0  0
 19 43  1  0  0  0  0
 20 21  1  0  0  0  0
 20 44  1  0  0  0  0
 20 45  1  0  0  0  0
 21 22  1  0  0  0  0
 21 23  1  0  0  0  0
 21 24  1  0  0  0  0
 23 46  1  0  0  0  0
 23 47  1  0  0  0  0
 24 25  1  0  0  0  0
 24 26  1  0  0  0  0
 26 27  2  0  0  0  0
 26 57  1  0  0  0  0
 28 29  1  0  0  0  0
 28 48  1  0  0  0  0
 28 49  1  0  0  0  0
 29 30  1  0  0  0  0
 29 31  1  0  0  0  0
 29 33  1  0  0  0  0
 31 32  1  0  0  0  0
 31 50  1  0  0  0  0
 31 51  1  0  0  0  0
 32 52  1  0  0  0  0
 32 53  1  0  0  0  0
 33 54  1  0  0  0  0
 33 55  1  0  0  0  0
 33 56  1  0  0  0  0
M  CHG  1  57  -1
M  END
$$$$
ZINC02088970
  -OEChem-08230709463D

 57 60  0     1  0  0  0  0  0999 V2000
   -0.4421    1.6432    6.3306 C   0  0  0  0  0  0  0  0  0  0  0  0
    0.1553    1.9133    4.9737 C   0  0  0  0  0  0  0  0  0  0  0  0
    0.5786    0.8584    4.1848 C   0  0  0  0  0  0  0  0  0  0  0  0
    1.1260    1.0995    2.9415 C   0  0  0  0  0  0  0  0  0  0  0  0
    1.2521    2.4094    2.4804 C   0  0  0  0  0  0  0  0  0  0  0  0
    0.8292    3.4685    3.2821 C   0  0  0  0  0  0  0  0  0  0  0  0
    0.2780    3.2147    4.5217 C   0  0  0  0  0  0  0  0  0  0  0  0
   -0.1850    4.3582    5.3872 C   0  0  0  0  0  0  0  0  0  0  0  0
    1.8393    2.6750    1.1455 C   0  0  0  0  0  0  0  0  0  0  0  0
    3.0155    3.3378    1.0040 C   0  0  0  0  0  0  0  0  0  0  0  0
    3.2488    3.3861   -0.7605 S   0  0  0  0  0  0  0  0  0  0  0  0
    1.8250    2.5428   -1.2684 C   0  0  0  0  0  0  0  0  0  0  0  0
    1.1879    2.2347   -0.0737 C   0  0  0  0  0  0  0  0  0  0  0  0
   -0.0809    1.5072   -0.0460 C   0  0  0  0  0  0  0  0  0  0  0  0
   -0.0842    0.2919    0.0101 O   0  0  0  0  0  0  0  0  0  0  0  0
   -1.2473    2.1835   -0.0884 O   0  0  0  0  0  0  0  0  0  0  0  0
   -2.4671    1.3963   -0.0636 C   0  0  0  0  0  0  0  0  0  0  0  0
    1.4178    2.2463   -2.5593 N   0  0  0  0  0  0  0  0  0  0  0  0
    2.1723    2.6290   -3.6085 C   0  0  0  0  0  0  0  0  0  0  0  0
    3.2076    3.2327   -3.4228 O   0  0  0  0  0  0  0  0  0  0  0  0
    1.7295    2.3066   -5.0125 C   0  0  1  0  0  0  0  0  0  0  0  0
    0.7679    2.7743   -5.2236 H   0  0  0  0  0  0  0  0  0  0  0  0
    2.8026    2.7753   -6.0420 C   0  0  2  0  0  0  0  0  0  0  0  0
    3.2499    3.7512   -5.8531 H   0  0  0  0  0  0  0  0  0  0  0  0
    2.1153    2.5978   -7.4304 C   0  0  0  0  0  0  0  0  0  0  0  0
    2.0254    1.0674   -7.6290 C   0  0  0  0  0  0  0  0  0  0  0  0
    2.6668    0.4645   -6.3420 C   0  0  1  0  0  0  0  0  0  0  0  0
    2.9958   -0.5721   -6.4144 H   0  0  0  0  0  0  0  0  0  0  0  0
    3.7694    1.5389   -6.0367 C   0  0  0  0  0  0  0  0  0  0  0  0
    1.6396    0.7762   -5.2111 C   0  0  2  0  0  0  0  0  0  0  0  0
    1.9137    0.2571   -4.2927 H   0  0  0  0  0  0  0  0  0  0  0  0
    0.2497    0.3830   -5.6408 C   0  0  0  0  0  0  0  0  0  0  0  0
   -0.4774    1.1996   -6.1551 O   0  0  0  0  0  0  0  0  0  0  0  0
    3.9060    3.9022    2.0808 C   0  0  0  0  0  0  0  0  0  0  0  0
    0.3485    1.6366    7.0809 H   0  0  0  0  0  0  0  0  0  0  0  0
   -1.1648    2.4229    6.5711 H   0  0  0  0  0  0  0  0  0  0  0  0
   -0.9422    0.6747    6.3212 H   0  0  0  0  0  0  0  0  0  0  0  0
    0.4800   -0.1558    4.5428 H   0  0  0  0  0  0  0  0  0  0  0  0
    1.4563    0.2753    2.3267 H   0  0  0  0  0  0  0  0  0  0  0  0
    0.9286    4.4854    2.9320 H   0  0  0  0  0  0  0  0  0  0  0  0
    0.6383    4.6926    6.0185 H   0  0  0  0  0  0  0  0  0  0  0  0
   -0.5156    5.1820    4.7547 H   0  0  0  0  0  0  0  0  0  0  0  0
   -1.0126    4.0271    6.0146 H   0  0  0  0  0  0  0  0  0  0  0  0
   -2.5021    0.8093    0.8541 H   0  0  0  0  0  0  0  0  0  0  0  0
   -3.3297    2.0615   -0.1026 H   0  0  0  0  0  0  0  0  0  0  0  0
   -2.4852    0.7271   -0.9239 H   0  0  0  0  0  0  0  0  0  0  0  0
    0.5898    1.7635   -2.7079 H   0  0  0  0  0  0  0  0  0  0  0  0
    2.7229    3.0478   -8.2155 H   0  0  0  0  0  0  0  0  0  0  0  0
    1.1186    3.0388   -7.4201 H   0  0  0  0  0  0  0  0  0  0  0  0
    2.5888    0.7651   -8.5118 H   0  0  0  0  0  0  0  0  0  0  0  0
    0.9850    0.7544   -7.7175 H   0  0  0  0  0  0  0  0  0  0  0  0
    4.2310    1.3852   -5.0613 H   0  0  0  0  0  0  0  0  0  0  0  0
    4.5134    1.5983   -6.8311 H   0  0  0  0  0  0  0  0  0  0  0  0
    4.7727    4.3788    1.6226 H   0  0  0  0  0  0  0  0  0  0  0  0
    3.3513    4.6389    2.6620 H   0  0  0  0  0  0  0  0  0  0  0  0
    4.2382    3.0974    2.7365 H   0  0  0  0  0  0  0  0  0  0  0  0
   -0.1806   -0.8744   -5.4522 O   0  5  0  0  0  0  0  0  0  0  0  0
  1  2  1  0  0  0  0
  1 35  1  0  0  0  0
  1 36  1  0  0  0  0
  1 37  1  0  0  0  0
  2  7  2  0  0  0  0
  2  3  1  0  0  0  0
  3  4  2  0  0  0  0
  3 38  1  0  0  0  0
  4  5  1  0  0  0  0
  4 39  1  0  0  0  0
  5  6  2  0  0  0  0
  5  9  1  0  0  0  0
  6  7  1  0  0  0  0
  6 40  1  0  0  0  0
  7  8  1  0  0  0  0
  8 41  1  0  0  0  0
  8 42  1  0  0  0  0
  8 43  1  0  0  0  0
  9 13  1  0  0  0  0
  9 10  2  0  0  0  0
 10 11  1  0  0  0  0
 10 34  1  0  0  0  0
 11 12  1  0  0  0  0
 12 13  2  0  0  0  0
 12 18  1  0  0  0  0
 13 14  1  0  0  0  0
 14 15  2  0  0  0  0
 14 16  1  0  0  0  0
 16 17  1  0  0  0  0
 17 44  1  0  0  0  0
 17 45  1  0  0  0  0
 17 46  1  0  0  0  0
 18 19  1  0  0  0  0
 18 47  1  0  0  0  0
 19 20  2  0  0  0  0
 19 21  1  0  0  0  0
 21 22  1  0  0  0  0
 21 30  1  0  0  0  0
 21 23  1  0  0  0  0
 23 24  1  0  0  0  0
 23 29  1  0  0  0  0
 23 25  1  0  0  0  0
 25 26  1  0  0  0  0
 25 48  1  0  0  0  0
 25 49  1  0  0  0  0
 26 27  1  0  0  0  0
 26 50  1  0  0  0  0
 26 51  1  0  0  0  0
 27 28  1  0  0  0  0
 27 29  1  0  0  0  0
 27 30  1  0  0  0  0
 29 52  1  0  0  0  0
 29 53  1  0  0  0  0
 30 31  1  0  0  0  0
 30 32  1  0  0  0  0
 32 33  2  0  0  0  0
 32 57  1  0  0  0  0
 34 54  1  0  0  0  0
 34 55  1  0  0  0  0
 34 56  1  0  0  0  0
M  CHG  1  57  -1
M  END
$$$$
ZINC02088979
  -OEChem-08230709463D

 54 57  0     1  0  0  0  0  0999 V2000
   -5.9067    3.1656   -7.6644 C   0  0  0  0  0  0  0  0  0  0  0  0
   -5.0828    1.9264   -7.4260 C   0  0  0  0  0  0  0  0  0  0  0  0
   -5.0015    0.9524   -8.4053 C   0  0  0  0  0  0  0  0  0  0  0  0
   -4.2477   -0.1878   -8.1935 C   0  0  0  0  0  0  0  0  0  0  0  0
   -3.5670   -0.3573   -7.0049 C   0  0  0  0  0  0  0  0  0  0  0  0
   -3.6498    0.6179   -6.0123 C   0  0  0  0  0  0  0  0  0  0  0  0
   -4.4114    1.7653   -6.2315 C   0  0  0  0  0  0  0  0  0  0  0  0
   -2.9262    0.4388   -4.7311 C   0  0  0  0  0  0  0  0  0  0  0  0
   -3.5856    0.2127   -3.5664 C   0  0  0  0  0  0  0  0  0  0  0  0
   -2.2721    0.0701   -2.3728 S   0  0  0  0  0  0  0  0  0  0  0  0
   -0.9066    0.3160   -3.4078 C   0  0  0  0  0  0  0  0  0  0  0  0
   -1.4783    0.4972   -4.6602 C   0  0  0  0  0  0  0  0  0  0  0  0
   -0.6608    0.7347   -5.8499 C   0  0  0  0  0  0  0  0  0  0  0  0
   -0.2079   -0.2060   -6.4744 O   0  0  0  0  0  0  0  0  0  0  0  0
   -0.4091    1.9967   -6.2544 O   0  0  0  0  0  0  0  0  0  0  0  0
    0.4093    2.1572   -7.4429 C   0  0  0  0  0  0  0  0  0  0  0  0
    0.4369    0.3241   -3.0686 N   0  0  0  0  0  0  0  0  0  0  0  0
    0.8099    0.1287   -1.7882 C   0  0  0  0  0  0  0  0  0  0  0  0
   -0.0304   -0.0542   -0.9331 O   0  0  0  0  0  0  0  0  0  0  0  0
    2.2710    0.1375   -1.4193 C   0  0  2  0  0  0  0  0  0  0  0  0
    2.8125   -0.6166   -1.9904 H   0  0  0  0  0  0  0  0  0  0  0  0
    2.4468   -0.1089    0.1103 C   0  0  1  0  0  0  0  0  0  0  0  0
    1.7996   -0.8689    0.5481 H   0  0  0  0  0  0  0  0  0  0  0  0
    3.9792   -0.3291    0.2966 C   0  0  0  0  0  0  0  0  0  0  0  0
    4.6048    1.0663    0.0707 C   0  0  0  0  0  0  0  0  0  0  0  0
    3.3915    1.9982   -0.2308 C   0  0  2  0  0  0  0  0  0  0  0  0
    3.5634    3.0651   -0.0888 H   0  0  0  0  0  0  0  0  0  0  0  0
    2.2915    1.3457    0.6790 C   0  0  0  0  0  0  0  0  0  0  0  0
    2.9123    1.5680   -1.6508 C   0  0  1  0  0  0  0  0  0  0  0  0
    2.1643    2.2659   -2.0270 H   0  0  0  0  0  0  0  0  0  0  0  0
    4.0817    1.4883   -2.5981 C   0  0  0  0  0  0  0  0  0  0  0  0
    4.6021    0.4221   -2.8271 O   0  0  0  0  0  0  0  0  0  0  0  0
   -2.7410   -1.5973   -6.7781 C   0  0  0  0  0  0  0  0  0  0  0  0
   -5.2830    3.9343   -8.1206 H   0  0  0  0  0  0  0  0  0  0  0  0
   -6.7360    2.9279   -8.3306 H   0  0  0  0  0  0  0  0  0  0  0  0
   -6.2968    3.5307   -6.7144 H   0  0  0  0  0  0  0  0  0  0  0  0
   -5.5285    1.0830   -9.3389 H   0  0  0  0  0  0  0  0  0  0  0  0
   -4.1882   -0.9449   -8.9614 H   0  0  0  0  0  0  0  0  0  0  0  0
   -4.4758    2.5261   -5.4677 H   0  0  0  0  0  0  0  0  0  0  0  0
   -4.6504    0.1340   -3.4036 H   0  0  0  0  0  0  0  0  0  0  0  0
    0.5342    3.2185   -7.6575 H   0  0  0  0  0  0  0  0  0  0  0  0
    1.3860    1.7030   -7.2755 H   0  0  0  0  0  0  0  0  0  0  0  0
   -0.0777    1.6704   -8.2879 H   0  0  0  0  0  0  0  0  0  0  0  0
    1.1090    0.4703   -3.7525 H   0  0  0  0  0  0  0  0  0  0  0  0
    4.1924   -0.6823    1.3055 H   0  0  0  0  0  0  0  0  0  0  0  0
    4.3538   -1.0376   -0.4422 H   0  0  0  0  0  0  0  0  0  0  0  0
    5.1256    1.3991    0.9686 H   0  0  0  0  0  0  0  0  0  0  0  0
    5.2870    1.0438   -0.7791 H   0  0  0  0  0  0  0  0  0  0  0  0
    1.3017    1.7578    0.4829 H   0  0  0  0  0  0  0  0  0  0  0  0
    2.5501    1.4010    1.7365 H   0  0  0  0  0  0  0  0  0  0  0  0
   -3.3744   -2.3867   -6.3734 H   0  0  0  0  0  0  0  0  0  0  0  0
   -2.3111   -1.9255   -7.7244 H   0  0  0  0  0  0  0  0  0  0  0  0
   -1.9402   -1.3763   -6.0724 H   0  0  0  0  0  0  0  0  0  0  0  0
    4.5451    2.6017   -3.1875 O   0  5  0  0  0  0  0  0  0  0  0  0
  1  2  1  0  0  0  0
  1 34  1  0  0  0  0
  1 35  1  0  0  0  0
  1 36  1  0  0  0  0
  2  7  2  0  0  0  0
  2  3  1  0  0  0  0
  3  4  2  0  0  0  0
  3 37  1  0  0  0  0
  4  5  1  0  0  0  0
  4 38  1  0  0  0  0
  5  6  2  0  0  0  0
  5 33  1  0  0  0  0
  6  7  1  0  0  0  0
  6  8  1  0  0  0  0
  7 39  1  0  0  0  0
  8 12  1  0  0  0  0
  8  9  2  0  0  0  0
  9 10  1  0  0  0  0
  9 40  1  0  0  0  0
 10 11  1  0  0  0  0
 11 12  2  0  0  0  0
 11 17  1  0  0  0  0
 12 13  1  0  0  0  0
 13 14  2  0  0  0  0
 13 15  1  0  0  0  0
 15 16  1  0  0  0  0
 16 41  1  0  0  0  0
 16 42  1  0  0  0  0
 16 43  1  0  0  0  0
 17 18  1  0  0  0  0
 17 44  1  0  0  0  0
 18 19  2  0  0  0  0
 18 20  1  0  0  0  0
 20 21  1  0  0  0  0
 20 29  1  0  0  0  0
 20 22  1  0  0  0  0
 22 23  1  0  0  0  0
 22 28  1  0  0  0  0
 22 24  1  0  0  0  0
 24 25  1  0  0  0  0
 24 45  1  0  0  0  0
 24 46  1  0  0  0  0
 25 26  1  0  0  0  0
 25 47  1  0  0  0  0
 25 48  1  0  0  0  0
 26 27  1  0  0  0  0
 26 28  1  0  0  0  0
 26 29  1  0  0  0  0
 28 49  1  0  0  0  0
 28 50  1  0  0  0  0
 29 30  1  0  0  0  0
 29 31  1  0  0  0  0
 31 32  2  0  0  0  0
 31 54  1  0  0  0  0
 33 51  1  0  0  0  0
 33 52  1  0  0  0  0
 33 53  1  0  0  0  0
M  CHG  1  54  -1
M  END
$$$$
ZINC02090785
  -OEChem-08230709463D

 60 63  0     1  0  0  0  0  0999 V2000
    0.9077    1.0301    5.8923 C   0  0  0  0  0  0  0  0  0  0  0  0
    1.2268    0.2223    4.6608 C   0  0  0  0  0  0  0  0  0  0  0  0
    0.7193   -0.8619    4.5016 O   0  0  0  0  0  0  0  0  0  0  0  0
    2.1792    0.7674    3.6279 C   0  0  1  0  0  0  0  0  0  0  0  0
    2.8991    1.2920    4.0823 H   0  0  0  0  0  0  0  0  0  0  0  0
    2.7905   -0.3854    2.8094 C   0  0  0  0  0  0  0  0  0  0  0  0
    2.3851   -0.1331    1.3468 C   0  0  0  0  0  0  0  0  0  0  0  0
    2.1369    1.3859    1.2903 C   0  0  2  0  0  0  0  0  0  0  0  0
    3.0978    1.9005    1.2985 H   0  0  0  0  0  0  0  0  0  0  0  0
    1.4139    1.6618    2.6164 C   0  0  1  0  0  0  0  0  0  0  0  0
   -0.0247    1.1381    2.5486 C   0  0  0  0  0  0  0  0  0  0  0  0
   -0.7516    1.8088    1.3707 C   0  0  0  0  0  0  0  0  0  0  0  0
   -0.0769    1.3304    0.0779 C   0  0  2  0  0  0  0  0  0  0  0  0
   -0.1109    0.2420    0.0277 H   0  0  0  0  0  0  0  0  0  0  0  0
    1.3691    1.7980    0.0540 C   0  0  2  0  0  0  0  0  0  0  0  0
    1.3689    2.8870    0.0080 H   0  0  0  0  0  0  0  0  0  0  0  0
    2.1268    1.2781   -1.1652 C   0  0  0  0  0  0  0  0  0  0  0  0
    1.2273    1.1023   -2.3799 C   0  0  0  0  0  0  0  0  0  0  0  0
    0.0581    2.0472   -2.2868 C   0  0  0  0  0  0  0  0  0  0  0  0
   -0.1776    2.9358   -3.2389 C   0  0  0  0  0  0  0  0  0  0  0  0
   -1.3132    3.8681   -3.1052 C   0  0  0  0  0  0  0  0  0  0  0  0
   -1.8839    4.0513   -1.9123 C   0  0  0  0  0  0  0  0  0  0  0  0
   -1.3566    3.3297   -0.6994 C   0  0  0  0  0  0  0  0  0  0  0  0
   -0.8540    1.9263   -1.1047 C   0  0  2  0  0  0  0  0  0  0  0  0
   -2.0313    1.0145   -1.4560 C   0  0  0  0  0  0  0  0  0  0  0  0
   -1.7897    4.5564   -4.2227 N   0  0  0  0  0  0  0  0  0  0  0  0
   -2.8797    5.4507   -4.0918 O   0  0  0  0  0  0  0  0  0  0  0  0
   -3.2614    6.0848   -5.3142 C   0  0  0  0  0  0  0  0  0  0  0  0
   -4.4238    7.0092   -5.0590 C   0  0  0  0  0  0  0  0  0  0  0  0
   -4.8787    7.1143   -3.9446 O   0  0  0  0  0  0  0  0  0  0  0  0
    1.4658    3.1417    3.0012 C   0  0  0  0  0  0  0  0  0  0  0  0
    1.4099    1.8944    5.8634 H   0  0  0  0  0  0  0  0  0  0  0  0
   -0.1627    1.2328    5.9266 H   0  0  0  0  0  0  0  0  0  0  0  0
    1.2000    0.4695    6.7803 H   0  0  0  0  0  0  0  0  0  0  0  0
    3.8749   -0.3876    2.9198 H   0  0  0  0  0  0  0  0  0  0  0  0
    2.3796   -1.3385    3.1422 H   0  0  0  0  0  0  0  0  0  0  0  0
    1.4780   -0.6801    1.0899 H   0  0  0  0  0  0  0  0  0  0  0  0
    3.2041   -0.4131    0.6842 H   0  0  0  0  0  0  0  0  0  0  0  0
   -0.0106    0.0548    2.4289 H   0  0  0  0  0  0  0  0  0  0  0  0
   -0.5472    1.3941    3.4703 H   0  0  0  0  0  0  0  0  0  0  0  0
   -0.7135    2.8970    1.4197 H   0  0  0  0  0  0  0  0  0  0  0  0
   -1.7908    1.4799    1.3819 H   0  0  0  0  0  0  0  0  0  0  0  0
    2.9208    1.9823   -1.4135 H   0  0  0  0  0  0  0  0  0  0  0  0
    2.5746    0.3156   -0.9178 H   0  0  0  0  0  0  0  0  0  0  0  0
    1.7950    1.3159   -3.2855 H   0  0  0  0  0  0  0  0  0  0  0  0
    0.8615    0.0761   -2.4148 H   0  0  0  0  0  0  0  0  0  0  0  0
    0.4591    2.9784   -4.1102 H   0  0  0  0  0  0  0  0  0  0  0  0
   -2.7272    4.7191   -1.8164 H   0  0  0  0  0  0  0  0  0  0  0  0
   -0.5338    3.9000   -0.2683 H   0  0  0  0  0  0  0  0  0  0  0  0
   -2.1535    3.2306    0.0376 H   0  0  0  0  0  0  0  0  0  0  0  0
   -2.6932    0.9274   -0.5943 H   0  0  0  0  0  0  0  0  0  0  0  0
   -2.5817    1.4390   -2.2956 H   0  0  0  0  0  0  0  0  0  0  0  0
   -1.6577    0.0274   -1.7283 H   0  0  0  0  0  0  0  0  0  0  0  0
   -1.3740    4.4219   -5.0888 H   0  0  0  0  0  0  0  0  0  0  0  0
   -2.4202    6.6579   -5.7043 H   0  0  0  0  0  0  0  0  0  0  0  0
   -3.5528    5.3267   -6.0412 H   0  0  0  0  0  0  0  0  0  0  0  0
    0.9876    3.7364    2.2230 H   0  0  0  0  0  0  0  0  0  0  0  0
    0.9420    3.2902    3.9455 H   0  0  0  0  0  0  0  0  0  0  0  0
    2.5049    3.4527    3.1093 H   0  0  0  0  0  0  0  0  0  0  0  0
   -4.9538    7.7159   -6.0696 O   0  5  0  0  0  0  0  0  0  0  0  0
  1  2  1  0  0  0  0
  1 32  1  0  0  0  0
  1 33  1  0  0  0  0
  1 34  1  0  0  0  0
  2  3  2  0  0  0  0
  2  4  1  0  0  0  0
  4  5  1  0  0  0  0
  4 10  1  0  0  0  0
  4  6  1  0  0  0  0
  6  7  1  0  0  0  0
  6 35  1  0  0  0  0
  6 36  1  0  0  0  0
  7  8  1  0  0  0  0
  7 37  1  0  0  0  0
  7 38  1  0  0  0  0
  8  9  1  0  0  0  0
  8 15  1  0  0  0  0
  8 10  1  0  0  0  0
 10 11  1  0  0  0  0
 10 31  1  0  0  0  0
 11 12  1  0  0  0  0
 11 39  1  0  0  0  0
 11 40  1  0  0  0  0
 12 13  1  0  0  0  0
 12 41  1  0  0  0  0
 12 42  1  0  0  0  0
 13 14  1  0  0  0  0
 13 24  1  0  0  0  0
 13 15  1  0  0  0  0
 15 16  1  0  0  0  0
 15 17  1  0  0  0  0
 17 18  1  0  0  0  0
 17 43  1  0  0  0  0
 17 44  1  0  0  0  0
 18 19  1  0  0  0  0
 18 45  1  0  0  0  0
 18 46  1  0  0  0  0
 19 24  1  0  0  0  0
 19 20  2  0  0  0  0
 20 21  1  0  0  0  0
 20 47  1  0  0  0  0
 21 22  2  0  0  0  0
 21 26  1  0  0  0  0
 22 23  1  0  0  0  0
 22 48  1  0  0  0  0
 23 24  1  0  0  0  0
 23 49  1  0  0  0  0
 23 50  1  0  0  0  0
 24 25  1  0  0  0  0
 25 51  1  0  0  0  0
 25 52  1  0  0  0  0
 25 53  1  0  0  0  0
 26 27  1  0  0  0  0
 26 54  1  0  0  0  0
 27 28  1  0  0  0  0
 28 29  1  0  0  0  0
 28 55  1  0  0  0  0
 28 56  1  0  0  0  0
 29 30  2  0  0  0  0
 29 60  1  0  0  0  0
 31 57  1  0  0  0  0
 31 58  1  0  0  0  0
 31 59  1  0  0  0  0
M  CHG  1  60  -1
M  END
$$$$
ZINC02092262
  -OEChem-08230709463D

 54 56  0     0  0  0  0  0  0999 V2000
  -11.9639   -7.4163    1.2040 C   0  0  0  0  0  0  0  0  0  0  0  0
  -10.8476   -6.4378    1.4635 C   0  0  0  0  0  0  0  0  0  0  0  0
   -9.5452   -6.8882    1.5731 C   0  0  0  0  0  0  0  0  0  0  0  0
   -8.5212   -5.9907    1.8111 C   0  0  0  0  0  0  0  0  0  0  0  0
   -8.7994   -4.6427    1.9388 C   0  0  0  0  0  0  0  0  0  0  0  0
  -10.1023   -4.1928    1.8340 C   0  0  0  0  0  0  0  0  0  0  0  0
  -11.1258   -5.0899    1.5916 C   0  0  0  0  0  0  0  0  0  0  0  0
  -12.5455   -4.5988    1.4717 C   0  0  0  0  0  0  0  0  0  0  0  0
  -10.4063   -2.7240    1.9792 C   0  0  0  0  0  0  0  0  0  0  0  0
   -7.6830   -3.6642    2.1983 C   0  0  0  0  0  0  0  0  0  0  0  0
   -7.1622   -3.1946    0.9532 O   0  0  0  0  0  0  0  0  0  0  0  0
   -6.1431   -2.2996    1.0097 C   0  0  0  0  0  0  0  0  0  0  0  0
   -5.6567   -1.8835    2.2477 C   0  0  0  0  0  0  0  0  0  0  0  0
   -4.6327   -0.9844    2.3212 C   0  0  0  0  0  0  0  0  0  0  0  0
   -4.0672   -0.4768    1.1458 C   0  0  0  0  0  0  0  0  0  0  0  0
   -2.9675    0.4890    1.1943 C   0  0  0  0  0  0  0  0  0  0  0  0
   -2.4615    0.9450    0.0189 C   0  0  0  0  0  0  0  0  0  0  0  0
   -3.0022    0.4894   -1.2011 C   0  0  0  0  0  0  0  0  0  0  0  0
   -2.5428    0.9103   -2.2477 O   0  0  0  0  0  0  0  0  0  0  0  0
   -4.0066   -0.4002   -1.2387 O   0  0  0  0  0  0  0  0  0  0  0  0
   -4.5543   -0.8929   -0.1071 C   0  0  0  0  0  0  0  0  0  0  0  0
   -5.5955   -1.8073   -0.1635 C   0  0  0  0  0  0  0  0  0  0  0  0
   -1.3295    1.9397    0.0189 C   0  0  0  0  0  0  0  0  0  0  0  0
   -0.0143    1.2041    0.0087 C   0  0  0  0  0  0  0  0  0  0  0  0
    0.0021   -0.0041    0.0020 O   0  0  0  0  0  0  0  0  0  0  0  0
   -2.4127    0.9647    2.5122 C   0  0  0  0  0  0  0  0  0  0  0  0
   -7.1015   -6.4818    1.9311 C   0  0  0  0  0  0  0  0  0  0  0  0
   -9.2419   -8.3578    1.4335 C   0  0  0  0  0  0  0  0  0  0  0  0
  -12.3607   -7.7751    2.1537 H   0  0  0  0  0  0  0  0  0  0  0  0
  -12.7568   -6.9223    0.6423 H   0  0  0  0  0  0  0  0  0  0  0  0
  -11.5817   -8.2592    0.6282 H   0  0  0  0  0  0  0  0  0  0  0  0
  -13.0157   -4.6030    2.4550 H   0  0  0  0  0  0  0  0  0  0  0  0
  -12.5466   -3.5844    1.0727 H   0  0  0  0  0  0  0  0  0  0  0  0
  -13.1011   -5.2538    0.8005 H   0  0  0  0  0  0  0  0  0  0  0  0
  -10.3547   -2.2439    1.0020 H   0  0  0  0  0  0  0  0  0  0  0  0
  -11.4070   -2.5992    2.3929 H   0  0  0  0  0  0  0  0  0  0  0  0
   -9.6771   -2.2664    2.6478 H   0  0  0  0  0  0  0  0  0  0  0  0
   -6.8905   -4.1579    2.7606 H   0  0  0  0  0  0  0  0  0  0  0  0
   -8.0654   -2.8209    2.7734 H   0  0  0  0  0  0  0  0  0  0  0  0
   -6.0930   -2.2750    3.1547 H   0  0  0  0  0  0  0  0  0  0  0  0
   -4.2599   -0.6656    3.2834 H   0  0  0  0  0  0  0  0  0  0  0  0
   -5.9779   -2.1346   -1.1190 H   0  0  0  0  0  0  0  0  0  0  0  0
   -1.3915    2.5607    0.9126 H   0  0  0  0  0  0  0  0  0  0  0  0
   -1.4000    2.5704   -0.8673 H   0  0  0  0  0  0  0  0  0  0  0  0
   -2.9575    1.8511    2.8371 H   0  0  0  0  0  0  0  0  0  0  0  0
   -2.5221    0.1772    3.2579 H   0  0  0  0  0  0  0  0  0  0  0  0
   -1.3571    1.2097    2.3948 H   0  0  0  0  0  0  0  0  0  0  0  0
   -6.8870   -6.7224    2.9723 H   0  0  0  0  0  0  0  0  0  0  0  0
   -6.9726   -7.3738    1.3181 H   0  0  0  0  0  0  0  0  0  0  0  0
   -6.4181   -5.7043    1.5896 H   0  0  0  0  0  0  0  0  0  0  0  0
   -9.2967   -8.8347    2.4121 H   0  0  0  0  0  0  0  0  0  0  0  0
   -9.9695   -8.8170    0.7643 H   0  0  0  0  0  0  0  0  0  0  0  0
   -8.2401   -8.4846    1.0230 H   0  0  0  0  0  0  0  0  0  0  0  0
    1.1389    1.8910    0.0013 O   0  5  0  0  0  0  0  0  0  0  0  0
  1  2  1  0  0  0  0
  1 29  1  0  0  0  0
  1 30  1  0  0  0  0
  1 31  1  0  0  0  0
  2  7  2  0  0  0  0
  2  3  1  0  0  0  0
  3  4  2  0  0  0  0
  3 28  1  0  0  0  0
  4  5  1  0  0  0  0
  4 27  1  0  0  0  0
  5  6  2  0  0  0  0
  5 10  1  0  0  0  0
  6  7  1  0  0  0  0
  6  9  1  0  0  0  0
  7  8  1  0  0  0  0
  8 32  1  0  0  0  0
  8 33  1  0  0  0  0
  8 34  1  0  0  0  0
  9 35  1  0  0  0  0
  9 36  1  0  0  0  0
  9 37  1  0  0  0  0
 10 11  1  0  0  0  0
 10 38  1  0  0  0  0
 10 39  1  0  0  0  0
 11 12  1  0  0  0  0
 12 22  2  0  0  0  0
 12 13  1  0  0  0  0
 13 14  2  0  0  0  0
 13 40  1  0  0  0  0
 14 15  1  0  0  0  0
 14 41  1  0  0  0  0
 15 21  2  0  0  0  0
 15 16  1  0  0  0  0
 16 17  2  0  0  0  0
 16 26  1  0  0  0  0
 17 18  1  0  0  0  0
 17 23  1  0  0  0  0
 18 19  2  0  0  0  0
 18 20  1  0  0  0  0
 20 21  1  0  0  0  0
 21 22  1  0  0  0  0
 22 42  1  0  0  0  0
 23 24  1  0  0  0  0
 23 43  1  0  0  0  0
 23 44  1  0  0  0  0
 24 25  2  0  0  0  0
 24 54  1  0  0  0  0
 26 45  1  0  0  0  0
 26 46  1  0  0  0  0
 26 47  1  0  0  0  0
 27 48  1  0  0  0  0
 27 49  1  0  0  0  0
 27 50  1  0  0  0  0
 28 51  1  0  0  0  0
 28 52  1  0  0  0  0
 28 53  1  0  0  0  0
M  CHG  1  54  -1
M  END
$$$$
ZINC02092988
  -OEChem-08230709463D

 48 50  0     0  0  0  0  0  0999 V2000
    2.5777   11.9107    0.0375 C   0  0  0  0  0  0  0  0  0  0  0  0
    2.8160   10.4227    0.0278 C   0  0  0  0  0  0  0  0  0  0  0  0
    2.9361    9.7341    1.2204 C   0  0  0  0  0  0  0  0  0  0  0  0
    3.1547    8.3692    1.2115 C   0  0  0  0  0  0  0  0  0  0  0  0
    3.2523    7.6927    0.0099 C   0  0  0  0  0  0  0  0  0  0  0  0
    3.1371    8.3820   -1.1827 C   0  0  0  0  0  0  0  0  0  0  0  0
    2.9142    9.7463   -1.1738 C   0  0  0  0  0  0  0  0  0  0  0  0
    3.4906    6.2047    0.0002 C   0  0  0  0  0  0  0  0  0  0  0  0
    2.2356    5.5213    0.0089 O   0  0  0  0  0  0  0  0  0  0  0  0
    2.2728    4.1643    0.0018 C   0  0  0  0  0  0  0  0  0  0  0  0
    3.5015    3.5066   -0.0129 C   0  0  0  0  0  0  0  0  0  0  0  0
    3.5556    2.1431   -0.0208 C   0  0  0  0  0  0  0  0  0  0  0  0
    2.3695    1.4000   -0.0130 C   0  0  0  0  0  0  0  0  0  0  0  0
    2.3969   -0.0641   -0.0211 C   0  0  0  0  0  0  0  0  0  0  0  0
    1.2118   -0.7283   -0.0134 C   0  0  0  0  0  0  0  0  0  0  0  0
    0.0021   -0.0041    0.0020 C   0  0  0  0  0  0  0  0  0  0  0  0
   -1.0533   -0.6119    0.0092 O   0  0  0  0  0  0  0  0  0  0  0  0
   -0.0161    1.3380    0.0094 O   0  0  0  0  0  0  0  0  0  0  0  0
    1.1259    2.0584    0.0024 C   0  0  0  0  0  0  0  0  0  0  0  0
    1.0893    3.4447    0.0096 C   0  0  0  0  0  0  0  0  0  0  0  0
   -0.2338    4.1659    0.0266 C   0  0  0  0  0  0  0  0  0  0  0  0
    1.1902   -2.2351   -0.0218 C   0  0  0  0  0  0  0  0  0  0  0  0
    1.1694   -2.7368   -1.4670 C   0  0  0  0  0  0  0  0  0  0  0  0
    1.1478   -4.2436   -1.4754 C   0  0  0  0  0  0  0  0  0  0  0  0
    1.1489   -4.8536   -0.4324 O   0  0  0  0  0  0  0  0  0  0  0  0
    3.7041   -0.8137   -0.0380 C   0  0  0  0  0  0  0  0  0  0  0  0
    3.5350   12.4320    0.0316 H   0  0  0  0  0  0  0  0  0  0  0  0
    2.0050   12.1927   -0.8460 H   0  0  0  0  0  0  0  0  0  0  0  0
    2.0209   12.1836    0.9339 H   0  0  0  0  0  0  0  0  0  0  0  0
    2.8594   10.2626    2.1591 H   0  0  0  0  0  0  0  0  0  0  0  0
    3.2488    7.8313    2.1432 H   0  0  0  0  0  0  0  0  0  0  0  0
    3.2178    7.8542   -2.1215 H   0  0  0  0  0  0  0  0  0  0  0  0
    2.8201   10.2842   -2.1055 H   0  0  0  0  0  0  0  0  0  0  0  0
    4.0640    5.9227    0.8832 H   0  0  0  0  0  0  0  0  0  0  0  0
    4.0468    5.9316   -0.8966 H   0  0  0  0  0  0  0  0  0  0  0  0
    4.4168    4.0799   -0.0182 H   0  0  0  0  0  0  0  0  0  0  0  0
    4.5106    1.6389   -0.0322 H   0  0  0  0  0  0  0  0  0  0  0  0
   -0.5425    4.3347    1.0582 H   0  0  0  0  0  0  0  0  0  0  0  0
   -0.1321    5.1238   -0.4835 H   0  0  0  0  0  0  0  0  0  0  0  0
   -0.9839    3.5609   -0.4828 H   0  0  0  0  0  0  0  0  0  0  0  0
    2.0796   -2.6140    0.4817 H   0  0  0  0  0  0  0  0  0  0  0  0
    0.2999   -2.5886    0.4984 H   0  0  0  0  0  0  0  0  0  0  0  0
    0.2800   -2.3579   -1.9704 H   0  0  0  0  0  0  0  0  0  0  0  0
    2.0597   -2.3833   -1.9872 H   0  0  0  0  0  0  0  0  0  0  0  0
    4.0093   -0.9886   -1.0697 H   0  0  0  0  0  0  0  0  0  0  0  0
    4.4670   -0.2253    0.4718 H   0  0  0  0  0  0  0  0  0  0  0  0
    3.5815   -1.7694    0.4716 H   0  0  0  0  0  0  0  0  0  0  0  0
    1.1274   -4.9081   -2.6415 O   0  5  0  0  0  0  0  0  0  0  0  0
  1  2  1  0  0  0  0
  1 27  1  0  0  0  0
  1 28  1  0  0  0  0
  1 29  1  0  0  0  0
  2  7  2  0  0  0  0
  2  3  1  0  0  0  0
  3  4  2  0  0  0  0
  3 30  1  0  0  0  0
  4  5  1  0  0  0  0
  4 31  1  0  0  0  0
  5  6  2  0  0  0  0
  5  8  1  0  0  0  0
  6  7  1  0  0  0  0
  6 32  1  0  0  0  0
  7 33  1  0  0  0  0
  8  9  1  0  0  0  0
  8 34  1  0  0  0  0
  8 35  1  0  0  0  0
  9 10  1  0  0  0  0
 10 20  2  0  0  0  0
 10 11  1  0  0  0  0
 11 12  2  0  0  0  0
 11 36  1  0  0  0  0
 12 13  1  0  0  0  0
 12 37  1  0  0  0  0
 13 19  2  0  0  0  0
 13 14  1  0  0  0  0
 14 15  2  0  0  0  0
 14 26  1  0  0  0  0
 15 16  1  0  0  0  0
 15 22  1  0  0  0  0
 16 17  2  0  0  0  0
 16 18  1  0  0  0  0
 18 19  1  0  0  0  0
 19 20  1  0  0  0  0
 20 21  1  0  0  0  0
 21 38  1  0  0  0  0
 21 39  1  0  0  0  0
 21 40  1  0  0  0  0
 22 23  1  0  0  0  0
 22 41  1  0  0  0  0
 22 42  1  0  0  0  0
 23 24  1  0  0  0  0
 23 43  1  0  0  0  0
 23 44  1  0  0  0  0
 24 25  2  0  0  0  0
 24 48  1  0  0  0  0
 26 45  1  0  0  0  0
 26 46  1  0  0  0  0
 26 47  1  0  0  0  0
M  CHG  1  48  -1
M  END
$$$$
ZINC02094129
  -OEChem-08230709463D

 57 59  0     0  0  0  0  0  0999 V2000
    3.7041   -0.8137   -0.0380 C   0  0  0  0  0  0  0  0  0  0  0  0
    2.3969   -0.0641   -0.0211 C   0  0  0  0  0  0  0  0  0  0  0  0
    2.3695    1.4000   -0.0130 C   0  0  0  0  0  0  0  0  0  0  0  0
    3.5556    2.1431   -0.0208 C   0  0  0  0  0  0  0  0  0  0  0  0
    3.5015    3.5066   -0.0129 C   0  0  0  0  0  0  0  0  0  0  0  0
    2.2728    4.1643    0.0018 C   0  0  0  0  0  0  0  0  0  0  0  0
    1.0893    3.4447    0.0096 C   0  0  0  0  0  0  0  0  0  0  0  0
    1.1259    2.0584    0.0024 C   0  0  0  0  0  0  0  0  0  0  0  0
   -0.0161    1.3380    0.0094 O   0  0  0  0  0  0  0  0  0  0  0  0
    0.0021   -0.0041    0.0020 C   0  0  0  0  0  0  0  0  0  0  0  0
   -1.0533   -0.6119    0.0092 O   0  0  0  0  0  0  0  0  0  0  0  0
    1.2118   -0.7283   -0.0134 C   0  0  0  0  0  0  0  0  0  0  0  0
    1.1902   -2.2351   -0.0218 C   0  0  0  0  0  0  0  0  0  0  0  0
    1.1694   -2.7368   -1.4670 C   0  0  0  0  0  0  0  0  0  0  0  0
    1.1478   -4.2436   -1.4754 C   0  0  0  0  0  0  0  0  0  0  0  0
    1.1489   -4.8536   -0.4324 O   0  0  0  0  0  0  0  0  0  0  0  0
   -0.2338    4.1659    0.0266 C   0  0  0  0  0  0  0  0  0  0  0  0
    2.2356    5.5213    0.0089 O   0  0  0  0  0  0  0  0  0  0  0  0
    3.4906    6.2047    0.0002 C   0  0  0  0  0  0  0  0  0  0  0  0
    3.2523    7.6927    0.0099 C   0  0  0  0  0  0  0  0  0  0  0  0
    3.1371    8.3820   -1.1827 C   0  0  0  0  0  0  0  0  0  0  0  0
    2.9142    9.7463   -1.1738 C   0  0  0  0  0  0  0  0  0  0  0  0
    2.8160   10.4227    0.0278 C   0  0  0  0  0  0  0  0  0  0  0  0
    2.9361    9.7341    1.2204 C   0  0  0  0  0  0  0  0  0  0  0  0
    3.1547    8.3692    1.2115 C   0  0  0  0  0  0  0  0  0  0  0  0
    2.5777   11.9107    0.0375 C   0  0  0  0  0  0  0  0  0  0  0  0
    3.7370   12.6082    0.7520 C   0  0  0  0  0  0  0  0  0  0  0  0
    2.4842   12.4216   -1.4016 C   0  0  0  0  0  0  0  0  0  0  0  0
    1.2701   12.2130    0.7720 C   0  0  0  0  0  0  0  0  0  0  0  0
    4.0093   -0.9886   -1.0697 H   0  0  0  0  0  0  0  0  0  0  0  0
    4.4670   -0.2253    0.4718 H   0  0  0  0  0  0  0  0  0  0  0  0
    3.5815   -1.7694    0.4716 H   0  0  0  0  0  0  0  0  0  0  0  0
    4.5106    1.6389   -0.0322 H   0  0  0  0  0  0  0  0  0  0  0  0
    4.4168    4.0799   -0.0182 H   0  0  0  0  0  0  0  0  0  0  0  0
    2.0796   -2.6140    0.4817 H   0  0  0  0  0  0  0  0  0  0  0  0
    0.2999   -2.5886    0.4984 H   0  0  0  0  0  0  0  0  0  0  0  0
    0.2800   -2.3579   -1.9704 H   0  0  0  0  0  0  0  0  0  0  0  0
    2.0597   -2.3833   -1.9872 H   0  0  0  0  0  0  0  0  0  0  0  0
   -0.5425    4.3347    1.0582 H   0  0  0  0  0  0  0  0  0  0  0  0
   -0.1321    5.1238   -0.4835 H   0  0  0  0  0  0  0  0  0  0  0  0
   -0.9839    3.5609   -0.4828 H   0  0  0  0  0  0  0  0  0  0  0  0
    4.0640    5.9227    0.8832 H   0  0  0  0  0  0  0  0  0  0  0  0
    4.0468    5.9316   -0.8966 H   0  0  0  0  0  0  0  0  0  0  0  0
    3.2179    7.8542   -2.1215 H   0  0  0  0  0  0  0  0  0  0  0  0
    2.8201   10.2842   -2.1055 H   0  0  0  0  0  0  0  0  0  0  0  0
    2.8594   10.2626    2.1591 H   0  0  0  0  0  0  0  0  0  0  0  0
    3.2488    7.8313    2.1432 H   0  0  0  0  0  0  0  0  0  0  0  0
    4.6686   12.3928    0.2287 H   0  0  0  0  0  0  0  0  0  0  0  0
    3.5646   13.6845    0.7590 H   0  0  0  0  0  0  0  0  0  0  0  0
    3.8037   12.2442    1.7772 H   0  0  0  0  0  0  0  0  0  0  0  0
    1.6583   11.9247   -1.9106 H   0  0  0  0  0  0  0  0  0  0  0  0
    2.3118   13.4979   -1.3946 H   0  0  0  0  0  0  0  0  0  0  0  0
    3.4158   12.2063   -1.9249 H   0  0  0  0  0  0  0  0  0  0  0  0
    1.3367   11.8490    1.7973 H   0  0  0  0  0  0  0  0  0  0  0  0
    1.0977   13.2892    0.7791 H   0  0  0  0  0  0  0  0  0  0  0  0
    0.4442   11.7161    0.2630 H   0  0  0  0  0  0  0  0  0  0  0  0
    1.1274   -4.9081   -2.6415 O   0  5  0  0  0  0  0  0  0  0  0  0
  1  2  1  0  0  0  0
  1 30  1  0  0  0  0
  1 31  1  0  0  0  0
  1 32  1  0  0  0  0
  2 12  2  0  0  0  0
  2  3  1  0  0  0  0
  3  8  2  0  0  0  0
  3  4  1  0  0  0  0
  4  5  2  0  0  0  0
  4 33  1  0  0  0  0
  5  6  1  0  0  0  0
  5 34  1  0  0  0  0
  6  7  2  0  0  0  0
  6 18  1  0  0  0  0
  7  8  1  0  0  0  0
  7 17  1  0  0  0  0
  8  9  1  0  0  0  0
  9 10  1  0  0  0  0
 10 11  2  0  0  0  0
 10 12  1  0  0  0  0
 12 13  1  0  0  0  0
 13 14  1  0  0  0  0
 13 35  1  0  0  0  0
 13 36  1  0  0  0  0
 14 15  1  0  0  0  0
 14 37  1  0  0  0  0
 14 38  1  0  0  0  0
 15 16  2  0  0  0  0
 15 57  1  0  0  0  0
 17 39  1  0  0  0  0
 17 40  1  0  0  0  0
 17 41  1  0  0  0  0
 18 19  1  0  0  0  0
 19 20  1  0  0  0  0
 19 42  1  0  0  0  0
 19 43  1  0  0  0  0
 20 25  2  0  0  0  0
 20 21  1  0  0  0  0
 21 22  2  0  0  0  0
 21 44  1  0  0  0  0
 22 23  1  0  0  0  0
 22 45  1  0  0  0  0
 23 24  2  0  0  0  0
 23 26  1  0  0  0  0
 24 25  1  0  0  0  0
 24 46  1  0  0  0  0
 25 47  1  0  0  0  0
 26 27  1  0  0  0  0
 26 28  1  0  0  0  0
 26 29  1  0  0  0  0
 27 48  1  0  0  0  0
 27 49  1  0  0  0  0
 27 50  1  0  0  0  0
 28 51  1  0  0  0  0
 28 52  1  0  0  0  0
 28 53  1  0  0  0  0
 29 54  1  0  0  0  0
 29 55  1  0  0  0  0
 29 56  1  0  0  0  0
M  CHG  1  57  -1
M  END
$$$$
ZINC02094393
  -OEChem-08230709463D

 57 59  0     0  0  0  0  0  0999 V2000
    1.5796    9.8288    0.0398 C   0  0  0  0  0  0  0  0  0  0  0  0
    1.7989    8.3379    0.0297 C   0  0  0  0  0  0  0  0  0  0  0  0
    1.9101    7.6476    1.2221 C   0  0  0  0  0  0  0  0  0  0  0  0
    2.1112    6.2800    1.2128 C   0  0  0  0  0  0  0  0  0  0  0  0
    2.2004    5.6026    0.0111 C   0  0  0  0  0  0  0  0  0  0  0  0
    2.0940    6.2936   -1.1814 C   0  0  0  0  0  0  0  0  0  0  0  0
    1.8885    7.6606   -1.1721 C   0  0  0  0  0  0  0  0  0  0  0  0
    1.7669    8.4131   -2.4720 C   0  0  0  0  0  0  0  0  0  0  0  0
    2.1973    5.5561   -2.4915 C   0  0  0  0  0  0  0  0  0  0  0  0
    2.4196    4.1117    0.0010 C   0  0  0  0  0  0  0  0  0  0  0  0
    1.1561    3.4443    0.0095 O   0  0  0  0  0  0  0  0  0  0  0  0
    1.1759    2.0870    0.0020 C   0  0  0  0  0  0  0  0  0  0  0  0
    2.3961    1.4137   -0.0122 C   0  0  0  0  0  0  0  0  0  0  0  0
    2.4328    0.0496   -0.0204 C   0  0  0  0  0  0  0  0  0  0  0  0
    1.2373   -0.6783   -0.0134 C   0  0  0  0  0  0  0  0  0  0  0  0
    1.2462   -2.1426   -0.0204 C   0  0  0  0  0  0  0  0  0  0  0  0
    0.0529   -2.7917   -0.0120 C   0  0  0  0  0  0  0  0  0  0  0  0
   -1.1475   -2.0523    0.0029 C   0  0  0  0  0  0  0  0  0  0  0  0
   -2.2105   -2.6468    0.0102 O   0  0  0  0  0  0  0  0  0  0  0  0
   -1.1489   -0.7101    0.0097 O   0  0  0  0  0  0  0  0  0  0  0  0
    0.0021   -0.0041    0.0020 C   0  0  0  0  0  0  0  0  0  0  0  0
   -0.0167    1.3826    0.0096 C   0  0  0  0  0  0  0  0  0  0  0  0
   -1.3306    2.1207    0.0199 C   0  0  0  0  0  0  0  0  0  0  0  0
    0.0123   -4.2982   -0.0192 C   0  0  0  0  0  0  0  0  0  0  0  0
   -0.0145   -4.7932   -1.4423 C   0  0  0  0  0  0  0  0  0  0  0  0
   -0.0019   -4.0037   -2.3569 O   0  0  0  0  0  0  0  0  0  0  0  0
    2.5439   -2.9086   -0.0368 C   0  0  0  0  0  0  0  0  0  0  0  0
    2.2329    5.5274    2.5128 C   0  0  0  0  0  0  0  0  0  0  0  0
    1.8124    8.3859    2.5322 C   0  0  0  0  0  0  0  0  0  0  0  0
    2.5434   10.3379    0.0341 H   0  0  0  0  0  0  0  0  0  0  0  0
    1.0106   10.1184   -0.8437 H   0  0  0  0  0  0  0  0  0  0  0  0
    1.0263   10.1086    0.9362 H   0  0  0  0  0  0  0  0  0  0  0  0
    2.7543    8.7442   -2.7940 H   0  0  0  0  0  0  0  0  0  0  0  0
    1.3373    7.7597   -3.2313 H   0  0  0  0  0  0  0  0  0  0  0  0
    1.1212    9.2799   -2.3311 H   0  0  0  0  0  0  0  0  0  0  0  0
    1.2055    5.2287   -2.8033 H   0  0  0  0  0  0  0  0  0  0  0  0
    2.6163    6.2182   -3.2491 H   0  0  0  0  0  0  0  0  0  0  0  0
    2.8449    4.6878   -2.3695 H   0  0  0  0  0  0  0  0  0  0  0  0
    2.9893    3.8222    0.8841 H   0  0  0  0  0  0  0  0  0  0  0  0
    2.9723    3.8318   -0.8958 H   0  0  0  0  0  0  0  0  0  0  0  0
    3.3187    1.9752   -0.0176 H   0  0  0  0  0  0  0  0  0  0  0  0
    3.3813   -0.4667   -0.0326 H   0  0  0  0  0  0  0  0  0  0  0  0
   -1.6425    2.2931    1.0500 H   0  0  0  0  0  0  0  0  0  0  0  0
   -1.2138    3.0774   -0.4893 H   0  0  0  0  0  0  0  0  0  0  0  0
   -2.0857    1.5255   -0.4936 H   0  0  0  0  0  0  0  0  0  0  0  0
    0.8969   -4.6879    0.4844 H   0  0  0  0  0  0  0  0  0  0  0  0
   -0.8823   -4.6400    0.5013 H   0  0  0  0  0  0  0  0  0  0  0  0
    2.8468   -3.0881   -1.0684 H   0  0  0  0  0  0  0  0  0  0  0  0
    3.3142   -2.3294    0.4725 H   0  0  0  0  0  0  0  0  0  0  0  0
    2.4094   -3.8622    0.4735 H   0  0  0  0  0  0  0  0  0  0  0  0
    3.2789    5.4953    2.8175 H   0  0  0  0  0  0  0  0  0  0  0  0
    1.6461    6.0315    3.2807 H   0  0  0  0  0  0  0  0  0  0  0  0
    1.8616    4.5112    2.3805 H   0  0  0  0  0  0  0  0  0  0  0  0
    2.8055    8.7136    2.8395 H   0  0  0  0  0  0  0  0  0  0  0  0
    1.1643    9.2541    2.4125 H   0  0  0  0  0  0  0  0  0  0  0  0
    1.3968    7.7242    3.2921 H   0  0  0  0  0  0  0  0  0  0  0  0
   -0.0523   -6.1112   -1.6939 O   0  5  0  0  0  0  0  0  0  0  0  0
  1  2  1  0  0  0  0
  1 30  1  0  0  0  0
  1 31  1  0  0  0  0
  1 32  1  0  0  0  0
  2  7  2  0  0  0  0
  2  3  1  0  0  0  0
  3  4  2  0  0  0  0
  3 29  1  0  0  0  0
  4  5  1  0  0  0  0
  4 28  1  0  0  0  0
  5  6  2  0  0  0  0
  5 10  1  0  0  0  0
  6  7  1  0  0  0  0
  6  9  1  0  0  0  0
  7  8  1  0  0  0  0
  8 33  1  0  0  0  0
  8 34  1  0  0  0  0
  8 35  1  0  0  0  0
  9 36  1  0  0  0  0
  9 37  1  0  0  0  0
  9 38  1  0  0  0  0
 10 11  1  0  0  0  0
 10 39  1  0  0  0  0
 10 40  1  0  0  0  0
 11 12  1  0  0  0  0
 12 22  2  0  0  0  0
 12 13  1  0  0  0  0
 13 14  2  0  0  0  0
 13 41  1  0  0  0  0
 14 15  1  0  0  0  0
 14 42  1  0  0  0  0
 15 21  2  0  0  0  0
 15 16  1  0  0  0  0
 16 17  2  0  0  0  0
 16 27  1  0  0  0  0
 17 18  1  0  0  0  0
 17 24  1  0  0  0  0
 18 19  2  0  0  0  0
 18 20  1  0  0  0  0
 20 21  1  0  0  0  0
 21 22  1  0  0  0  0
 22 23  1  0  0  0  0
 23 43  1  0  0  0  0
 23 44  1  0  0  0  0
 23 45  1  0  0  0  0
 24 25  1  0  0  0  0
 24 46  1  0  0  0  0
 24 47  1  0  0  0  0
 25 26  2  0  0  0  0
 25 57  1  0  0  0  0
 27 48  1  0  0  0  0
 27 49  1  0  0  0  0
 27 50  1  0  0  0  0
 28 51  1  0  0  0  0
 28 52  1  0  0  0  0
 28 53  1  0  0  0  0
 29 54  1  0  0  0  0
 29 55  1  0  0  0  0
 29 56  1  0  0  0  0
M  CHG  1  57  -1
M  END
$$$$
ZINC02094757
  -OEChem-08230709463D

 54 56  0     0  0  0  0  0  0999 V2000
   -0.0184    1.5028    0.0103 C   0  0  0  0  0  0  0  0  0  0  0  0
    0.0021   -0.0041    0.0020 C   0  0  0  0  0  0  0  0  0  0  0  0
   -0.0059   -0.7494   -1.2585 C   0  0  0  0  0  0  0  0  0  0  0  0
   -0.0206   -0.0833   -2.4894 C   0  0  0  0  0  0  0  0  0  0  0  0
   -0.0222   -0.8021   -3.6494 C   0  0  0  0  0  0  0  0  0  0  0  0
   -0.0028   -2.1953   -3.6165 C   0  0  0  0  0  0  0  0  0  0  0  0
    0.0174   -2.8707   -2.4073 C   0  0  0  0  0  0  0  0  0  0  0  0
    0.0189   -2.1559   -1.2189 C   0  0  0  0  0  0  0  0  0  0  0  0
    0.0389   -2.7946   -0.0294 O   0  0  0  0  0  0  0  0  0  0  0  0
    0.0410   -2.1174    1.1295 C   0  0  0  0  0  0  0  0  0  0  0  0
    0.0590   -2.7363    2.1783 O   0  0  0  0  0  0  0  0  0  0  0  0
    0.0227   -0.7080    1.1637 C   0  0  0  0  0  0  0  0  0  0  0  0
    0.0254    0.0157    2.4856 C   0  0  0  0  0  0  0  0  0  0  0  0
   -1.4160    0.2410    2.9466 C   0  0  0  0  0  0  0  0  0  0  0  0
   -1.4133    0.9647    4.2685 C   0  0  0  0  0  0  0  0  0  0  0  0
   -0.3660    1.2690    4.7885 O   0  0  0  0  0  0  0  0  0  0  0  0
   -0.0042   -2.8962   -4.7790 O   0  0  0  0  0  0  0  0  0  0  0  0
   -0.0256   -2.1409   -5.9919 C   0  0  0  0  0  0  0  0  0  0  0  0
   -0.0239   -3.0813   -7.1694 C   0  0  0  0  0  0  0  0  0  0  0  0
    1.1737   -3.4922   -7.7242 C   0  0  0  0  0  0  0  0  0  0  0  0
    1.1753   -4.3583   -8.8016 C   0  0  0  0  0  0  0  0  0  0  0  0
   -0.0209   -4.8060   -9.3303 C   0  0  0  0  0  0  0  0  0  0  0  0
   -1.2186   -4.3913   -8.7785 C   0  0  0  0  0  0  0  0  0  0  0  0
   -1.2201   -3.5287   -7.6984 C   0  0  0  0  0  0  0  0  0  0  0  0
   -0.0192   -5.7465  -10.5078 C   0  0  0  0  0  0  0  0  0  0  0  0
   -0.7610   -5.0988  -11.6788 C   0  0  0  0  0  0  0  0  0  0  0  0
    1.4236   -6.0446  -10.9203 C   0  0  0  0  0  0  0  0  0  0  0  0
   -0.7186   -7.0508  -10.1197 C   0  0  0  0  0  0  0  0  0  0  0  0
    1.0042    1.8801    0.0026 H   0  0  0  0  0  0  0  0  0  0  0  0
   -0.5455    1.8639   -0.8728 H   0  0  0  0  0  0  0  0  0  0  0  0
   -0.5286    1.8543    0.9071 H   0  0  0  0  0  0  0  0  0  0  0  0
   -0.0357    0.9961   -2.5211 H   0  0  0  0  0  0  0  0  0  0  0  0
   -0.0383   -0.2881   -4.5991 H   0  0  0  0  0  0  0  0  0  0  0  0
    0.0317   -3.9505   -2.3901 H   0  0  0  0  0  0  0  0  0  0  0  0
    0.5544   -0.5834    3.2267 H   0  0  0  0  0  0  0  0  0  0  0  0
    0.5251    0.9777    2.3721 H   0  0  0  0  0  0  0  0  0  0  0  0
   -1.9451    0.8401    2.2055 H   0  0  0  0  0  0  0  0  0  0  0  0
   -1.9158   -0.7210    3.0601 H   0  0  0  0  0  0  0  0  0  0  0  0
   -0.9242   -1.5246   -6.0204 H   0  0  0  0  0  0  0  0  0  0  0  0
    0.8555   -1.5008   -6.0369 H   0  0  0  0  0  0  0  0  0  0  0  0
    2.1082   -3.1392   -7.3137 H   0  0  0  0  0  0  0  0  0  0  0  0
    2.1111   -4.6825   -9.2324 H   0  0  0  0  0  0  0  0  0  0  0  0
   -2.1532   -4.7411   -9.1916 H   0  0  0  0  0  0  0  0  0  0  0  0
   -2.1559   -3.2044   -7.2676 H   0  0  0  0  0  0  0  0  0  0  0  0
   -0.2628   -4.1696  -11.9552 H   0  0  0  0  0  0  0  0  0  0  0  0
   -0.7598   -5.7791  -12.5305 H   0  0  0  0  0  0  0  0  0  0  0  0
   -1.7889   -4.8864  -11.3849 H   0  0  0  0  0  0  0  0  0  0  0  0
    1.9521   -6.5060  -10.0861 H   0  0  0  0  0  0  0  0  0  0  0  0
    1.4248   -6.7248  -11.7720 H   0  0  0  0  0  0  0  0  0  0  0  0
    1.9219   -5.1154  -11.1968 H   0  0  0  0  0  0  0  0  0  0  0  0
   -1.7465   -6.8384   -9.8258 H   0  0  0  0  0  0  0  0  0  0  0  0
   -0.7174   -7.7310  -10.9714 H   0  0  0  0  0  0  0  0  0  0  0  0
   -0.1901   -7.5121   -9.2855 H   0  0  0  0  0  0  0  0  0  0  0  0
   -2.5744    1.2712    4.8682 O   0  5  0  0  0  0  0  0  0  0  0  0
  1  2  1  0  0  0  0
  1 29  1  0  0  0  0
  1 30  1  0  0  0  0
  1 31  1  0  0  0  0
  2 12  2  0  0  0  0
  2  3  1  0  0  0  0
  3  8  2  0  0  0  0
  3  4  1  0  0  0  0
  4  5  2  0  0  0  0
  4 32  1  0  0  0  0
  5  6  1  0  0  0  0
  5 33  1  0  0  0  0
  6  7  2  0  0  0  0
  6 17  1  0  0  0  0
  7  8  1  0  0  0  0
  7 34  1  0  0  0  0
  8  9  1  0  0  0  0
  9 10  1  0  0  0  0
 10 11  2  0  0  0  0
 10 12  1  0  0  0  0
 12 13  1  0  0  0  0
 13 14  1  0  0  0  0
 13 35  1  0  0  0  0
 13 36  1  0  0  0  0
 14 15  1  0  0  0  0
 14 37  1  0  0  0  0
 14 38  1  0  0  0  0
 15 16  2  0  0  0  0
 15 54  1  0  0  0  0
 17 18  1  0  0  0  0
 18 19  1  0  0  0  0
 18 39  1  0  0  0  0
 18 40  1  0  0  0  0
 19 24  2  0  0  0  0
 19 20  1  0  0  0  0
 20 21  2  0  0  0  0
 20 41  1  0  0  0  0
 21 22  1  0  0  0  0
 21 42  1  0  0  0  0
 22 23  2  0  0  0  0
 22 25  1  0  0  0  0
 23 24  1  0  0  0  0
 23 43  1  0  0  0  0
 24 44  1  0  0  0  0
 25 26  1  0  0  0  0
 25 27  1  0  0  0  0
 25 28  1  0  0  0  0
 26 45  1  0  0  0  0
 26 46  1  0  0  0  0
 26 47  1  0  0  0  0
 27 48  1  0  0  0  0
 27 49  1  0  0  0  0
 27 50  1  0  0  0  0
 28 51  1  0  0  0  0
 28 52  1  0  0  0  0
 28 53  1  0  0  0  0
M  CHG  1  54  -1
M  END
$$$$
ZINC02095503
  -OEChem-08230709463D

 48 50  0     0  0  0  0  0  0999 V2000
    2.7829   10.4950   -2.4798 C   0  0  0  0  0  0  0  0  0  0  0  0
    2.9137    9.7452   -1.1791 C   0  0  0  0  0  0  0  0  0  0  0  0
    2.8160   10.4227    0.0221 C   0  0  0  0  0  0  0  0  0  0  0  0
    2.9365    9.7351    1.2151 C   0  0  0  0  0  0  0  0  0  0  0  0
    3.1547    8.3699    1.2071 C   0  0  0  0  0  0  0  0  0  0  0  0
    3.2523    7.6927    0.0063 C   0  0  0  0  0  0  0  0  0  0  0  0
    3.1370    8.3813   -1.1871 C   0  0  0  0  0  0  0  0  0  0  0  0
    3.4906    6.2047   -0.0024 C   0  0  0  0  0  0  0  0  0  0  0  0
    2.2356    5.5213    0.0069 O   0  0  0  0  0  0  0  0  0  0  0  0
    2.2728    4.1643    0.0007 C   0  0  0  0  0  0  0  0  0  0  0  0
    3.5015    3.5066   -0.0145 C   0  0  0  0  0  0  0  0  0  0  0  0
    3.5556    2.1431   -0.0208 C   0  0  0  0  0  0  0  0  0  0  0  0
    2.3695    1.4000   -0.0130 C   0  0  0  0  0  0  0  0  0  0  0  0
    2.3969   -0.0641   -0.0211 C   0  0  0  0  0  0  0  0  0  0  0  0
    1.2118   -0.7283   -0.0134 C   0  0  0  0  0  0  0  0  0  0  0  0
    0.0021   -0.0041    0.0020 C   0  0  0  0  0  0  0  0  0  0  0  0
   -1.0533   -0.6119    0.0092 O   0  0  0  0  0  0  0  0  0  0  0  0
   -0.0161    1.3380    0.0094 O   0  0  0  0  0  0  0  0  0  0  0  0
    1.1259    2.0584    0.0024 C   0  0  0  0  0  0  0  0  0  0  0  0
    1.0893    3.4447    0.0091 C   0  0  0  0  0  0  0  0  0  0  0  0
   -0.2338    4.1659    0.0260 C   0  0  0  0  0  0  0  0  0  0  0  0
    1.1902   -2.2351   -0.0218 C   0  0  0  0  0  0  0  0  0  0  0  0
    1.1695   -2.7368   -1.4670 C   0  0  0  0  0  0  0  0  0  0  0  0
    1.1478   -4.2436   -1.4754 C   0  0  0  0  0  0  0  0  0  0  0  0
    1.1489   -4.8536   -0.4324 O   0  0  0  0  0  0  0  0  0  0  0  0
    3.7041   -0.8137   -0.0380 C   0  0  0  0  0  0  0  0  0  0  0  0
    3.7661   10.8376   -2.8022 H   0  0  0  0  0  0  0  0  0  0  0  0
    2.3611    9.8356   -3.2384 H   0  0  0  0  0  0  0  0  0  0  0  0
    2.1267   11.3540   -2.3396 H   0  0  0  0  0  0  0  0  0  0  0  0
    2.6459   11.4892    0.0283 H   0  0  0  0  0  0  0  0  0  0  0  0
    2.8605   10.2644    2.1534 H   0  0  0  0  0  0  0  0  0  0  0  0
    3.2491    7.8327    2.1393 H   0  0  0  0  0  0  0  0  0  0  0  0
    3.2178    7.8528   -2.1255 H   0  0  0  0  0  0  0  0  0  0  0  0
    4.0640    5.9234    0.8809 H   0  0  0  0  0  0  0  0  0  0  0  0
    4.0468    5.9310   -0.8990 H   0  0  0  0  0  0  0  0  0  0  0  0
    4.4168    4.0799   -0.0205 H   0  0  0  0  0  0  0  0  0  0  0  0
    4.5106    1.6389   -0.0320 H   0  0  0  0  0  0  0  0  0  0  0  0
   -0.5423    4.3351    1.0577 H   0  0  0  0  0  0  0  0  0  0  0  0
   -0.1322    5.1236   -0.4845 H   0  0  0  0  0  0  0  0  0  0  0  0
   -0.9840    3.5607   -0.4829 H   0  0  0  0  0  0  0  0  0  0  0  0
    2.0796   -2.6140    0.4817 H   0  0  0  0  0  0  0  0  0  0  0  0
    0.2999   -2.5886    0.4984 H   0  0  0  0  0  0  0  0  0  0  0  0
    0.2800   -2.3579   -1.9704 H   0  0  0  0  0  0  0  0  0  0  0  0
    2.0597   -2.3833   -1.9872 H   0  0  0  0  0  0  0  0  0  0  0  0
    4.0093   -0.9886   -1.0697 H   0  0  0  0  0  0  0  0  0  0  0  0
    4.4670   -0.2253    0.4718 H   0  0  0  0  0  0  0  0  0  0  0  0
    3.5816   -1.7694    0.4716 H   0  0  0  0  0  0  0  0  0  0  0  0
    1.1274   -4.9081   -2.6415 O   0  5  0  0  0  0  0  0  0  0  0  0
  1  2  1  0  0  0  0
  1 27  1  0  0  0  0
  1 28  1  0  0  0  0
  1 29  1  0  0  0  0
  2  7  2  0  0  0  0
  2  3  1  0  0  0  0
  3  4  2  0  0  0  0
  3 30  1  0  0  0  0
  4  5  1  0  0  0  0
  4 31  1  0  0  0  0
  5  6  2  0  0  0  0
  5 32  1  0  0  0  0
  6  7  1  0  0  0  0
  6  8  1  0  0  0  0
  7 33  1  0  0  0  0
  8  9  1  0  0  0  0
  8 34  1  0  0  0  0
  8 35  1  0  0  0  0
  9 10  1  0  0  0  0
 10 20  2  0  0  0  0
 10 11  1  0  0  0  0
 11 12  2  0  0  0  0
 11 36  1  0  0  0  0
 12 13  1  0  0  0  0
 12 37  1  0  0  0  0
 13 19  2  0  0  0  0
 13 14  1  0  0  0  0
 14 15  2  0  0  0  0
 14 26  1  0  0  0  0
 15 16  1  0  0  0  0
 15 22  1  0  0  0  0
 16 17  2  0  0  0  0
 16 18  1  0  0  0  0
 18 19  1  0  0  0  0
 19 20  1  0  0  0  0
 20 21  1  0  0  0  0
 21 38  1  0  0  0  0
 21 39  1  0  0  0  0
 21 40  1  0  0  0  0
 22 23  1  0  0  0  0
 22 41  1  0  0  0  0
 22 42  1  0  0  0  0
 23 24  1  0  0  0  0
 23 43  1  0  0  0  0
 23 44  1  0  0  0  0
 24 25  2  0  0  0  0
 24 48  1  0  0  0  0
 26 45  1  0  0  0  0
 26 46  1  0  0  0  0
 26 47  1  0  0  0  0
M  CHG  1  48  -1
M  END
$$$$
ZINC02103399
  -OEChem-08230709463D

 56 58  0     1  0  0  0  0  0999 V2000
   11.6134    3.1375   -2.5446 C   0  0  0  0  0  0  0  0  0  0  0  0
   10.8925    3.9941   -1.5017 C   0  0  0  0  0  0  0  0  0  0  0  0
    9.9427    3.1138   -0.6870 C   0  0  0  0  0  0  0  0  0  0  0  0
    9.2219    3.9704    0.3559 C   0  0  0  0  0  0  0  0  0  0  0  0
    8.3205    3.1350    1.1291 O   0  0  0  0  0  0  0  0  0  0  0  0
    7.6036    3.7408    2.0978 C   0  0  0  0  0  0  0  0  0  0  0  0
    7.7290    4.9352    2.2905 O   0  0  0  0  0  0  0  0  0  0  0  0
    6.6743    2.9605    2.9175 C   0  0  0  0  0  0  0  0  0  0  0  0
    7.1043    2.3355    4.1572 C   0  0  0  0  0  0  0  0  0  0  0  0
    6.1497    1.6403    4.8123 C   0  0  0  0  0  0  0  0  0  0  0  0
    4.6983    1.8119    3.8133 S   0  0  0  0  0  0  0  0  0  0  0  0
    5.3479    2.7931    2.5416 C   0  0  0  0  0  0  0  0  0  0  0  0
    4.7022    3.2862    1.4186 N   0  0  0  0  0  0  0  0  0  0  0  0
    3.3982    3.0119    1.2163 C   0  0  0  0  0  0  0  0  0  0  0  0
    2.7899    2.3338    2.0169 O   0  0  0  0  0  0  0  0  0  0  0  0
    2.6961    3.5480   -0.0046 C   0  0  2  0  0  0  0  0  0  0  0  0
    3.1869    3.1698   -0.9014 H   0  0  0  0  0  0  0  0  0  0  0  0
    2.7554    5.0768    0.0030 C   0  0  0  0  0  0  0  0  0  0  0  0
    2.0426    5.6211   -1.2366 C   0  0  0  0  0  0  0  0  0  0  0  0
    0.5815    5.1674   -1.2251 C   0  0  0  0  0  0  0  0  0  0  0  0
    0.5222    3.6385   -1.2327 C   0  0  0  0  0  0  0  0  0  0  0  0
    1.2350    3.0943    0.0069 C   0  0  1  0  0  0  0  0  0  0  0  0
    0.7441    3.4725    0.9036 H   0  0  0  0  0  0  0  0  0  0  0  0
    1.1765    1.5884   -0.0006 C   0  0  0  0  0  0  0  0  0  0  0  0
    2.1986    0.9442   -0.0139 O   0  0  0  0  0  0  0  0  0  0  0  0
    6.3011    0.8922    6.1009 C   0  0  0  0  0  0  0  0  0  0  0  0
    7.7999    0.7161    6.3849 C   0  0  0  0  0  0  0  0  0  0  0  0
    8.5003    2.0642    6.1919 C   0  0  0  0  0  0  0  0  0  0  0  0
    8.5223    2.4309    4.7069 C   0  0  0  0  0  0  0  0  0  0  0  0
   12.1834    2.3562   -2.0419 H   0  0  0  0  0  0  0  0  0  0  0  0
   10.8802    2.6814   -3.2098 H   0  0  0  0  0  0  0  0  0  0  0  0
   12.2900    3.7646   -3.1250 H   0  0  0  0  0  0  0  0  0  0  0  0
   10.3225    4.7754   -2.0044 H   0  0  0  0  0  0  0  0  0  0  0  0
   11.6257    4.4502   -0.8365 H   0  0  0  0  0  0  0  0  0  0  0  0
   10.5128    2.3325   -0.1842 H   0  0  0  0  0  0  0  0  0  0  0  0
    9.2095    2.6577   -1.3522 H   0  0  0  0  0  0  0  0  0  0  0  0
    8.6518    4.7517   -0.1468 H   0  0  0  0  0  0  0  0  0  0  0  0
    9.9551    4.4265    1.0211 H   0  0  0  0  0  0  0  0  0  0  0  0
    5.1887    3.8286    0.7784 H   0  0  0  0  0  0  0  0  0  0  0  0
    3.7964    5.4001   -0.0052 H   0  0  0  0  0  0  0  0  0  0  0  0
    2.2646    5.4550    0.8998 H   0  0  0  0  0  0  0  0  0  0  0  0
    2.5335    5.2429   -2.1333 H   0  0  0  0  0  0  0  0  0  0  0  0
    2.0849    6.7103   -1.2311 H   0  0  0  0  0  0  0  0  0  0  0  0
    0.0737    5.5551   -2.1082 H   0  0  0  0  0  0  0  0  0  0  0  0
    0.0907    5.5455   -0.3283 H   0  0  0  0  0  0  0  0  0  0  0  0
    1.0130    3.2604   -2.1295 H   0  0  0  0  0  0  0  0  0  0  0  0
   -0.5188    3.3153   -1.2245 H   0  0  0  0  0  0  0  0  0  0  0  0
    5.8380    1.4570    6.9100 H   0  0  0  0  0  0  0  0  0  0  0  0
    5.8255   -0.0849    6.0162 H   0  0  0  0  0  0  0  0  0  0  0  0
    7.9398    0.3752    7.4107 H   0  0  0  0  0  0  0  0  0  0  0  0
    8.2185   -0.0175    5.6959 H   0  0  0  0  0  0  0  0  0  0  0  0
    7.9639    2.8337    6.7470 H   0  0  0  0  0  0  0  0  0  0  0  0
    9.5228    1.9975    6.5636 H   0  0  0  0  0  0  0  0  0  0  0  0
    8.8928    3.4490    4.5874 H   0  0  0  0  0  0  0  0  0  0  0  0
    9.1701    1.7386    4.1691 H   0  0  0  0  0  0  0  0  0  0  0  0
   -0.0110    0.9628    0.0073 O   0  5  0  0  0  0  0  0  0  0  0  0
  1  2  1  0  0  0  0
  1 30  1  0  0  0  0
  1 31  1  0  0  0  0
  1 32  1  0  0  0  0
  2  3  1  0  0  0  0
  2 33  1  0  0  0  0
  2 34  1  0  0  0  0
  3  4  1  0  0  0  0
  3 35  1  0  0  0  0
  3 36  1  0  0  0  0
  4  5  1  0  0  0  0
  4 37  1  0  0  0  0
  4 38  1  0  0  0  0
  5  6  1  0  0  0  0
  6  7  2  0  0  0  0
  6  8  1  0  0  0  0
  8 12  2  0  0  0  0
  8  9  1  0  0  0  0
  9 29  1  0  0  0  0
  9 10  2  0  0  0  0
 10 11  1  0  0  0  0
 10 26  1  0  0  0  0
 11 12  1  0  0  0  0
 12 13  1  0  0  0  0
 13 14  1  0  0  0  0
 13 39  1  0  0  0  0
 14 15  2  0  0  0  0
 14 16  1  0  0  0  0
 16 17  1  0  0  0  0
 16 22  1  0  0  0  0
 16 18  1  0  0  0  0
 18 19  1  0  0  0  0
 18 40  1  0  0  0  0
 18 41  1  0  0  0  0
 19 20  1  0  0  0  0
 19 42  1  0  0  0  0
 19 43  1  0  0  0  0
 20 21  1  0  0  0  0
 20 44  1  0  0  0  0
 20 45  1  0  0  0  0
 21 22  1  0  0  0  0
 21 46  1  0  0  0  0
 21 47  1  0  0  0  0
 22 23  1  0  0  0  0
 22 24  1  0  0  0  0
 24 25  2  0  0  0  0
 24 56  1  0  0  0  0
 26 27  1  0  0  0  0
 26 48  1  0  0  0  0
 26 49  1  0  0  0  0
 27 28  1  0  0  0  0
 27 50  1  0  0  0  0
 27 51  1  0  0  0  0
 28 29  1  0  0  0  0
 28 52  1  0  0  0  0
 28 53  1  0  0  0  0
 29 54  1  0  0  0  0
 29 55  1  0  0  0  0
M  CHG  1  56  -1
M  END
$$$$
ZINC02103401
  -OEChem-08230709463D

 56 58  0     1  0  0  0  0  0999 V2000
    3.3163   -7.6411   -3.2789 C   0  0  0  0  0  0  0  0  0  0  0  0
    2.7753   -6.3852   -3.9651 C   0  0  0  0  0  0  0  0  0  0  0  0
    3.1021   -5.1574   -3.1126 C   0  0  0  0  0  0  0  0  0  0  0  0
    2.5612   -3.9015   -3.7988 C   0  0  0  0  0  0  0  0  0  0  0  0
    2.8713   -2.7363   -2.9897 O   0  0  0  0  0  0  0  0  0  0  0  0
    2.4606   -1.5395   -3.4570 C   0  0  0  0  0  0  0  0  0  0  0  0
    1.8595   -1.4723   -4.5123 O   0  0  0  0  0  0  0  0  0  0  0  0
    2.7384   -0.3210   -2.6937 C   0  0  0  0  0  0  0  0  0  0  0  0
    1.8044    0.1730   -1.6957 C   0  0  0  0  0  0  0  0  0  0  0  0
    2.1823    1.3058   -1.0651 C   0  0  0  0  0  0  0  0  0  0  0  0
    3.7506    1.7182   -1.7754 S   0  0  0  0  0  0  0  0  0  0  0  0
    3.9044    0.4057   -2.8959 C   0  0  0  0  0  0  0  0  0  0  0  0
    4.9399    0.1444   -3.7795 N   0  0  0  0  0  0  0  0  0  0  0  0
    6.0026    0.9714   -3.8358 C   0  0  0  0  0  0  0  0  0  0  0  0
    6.0529    1.9442   -3.1134 O   0  0  0  0  0  0  0  0  0  0  0  0
    7.1284    0.6873   -4.7965 C   0  0  1  0  0  0  0  0  0  0  0  0
    7.5637   -0.2857   -4.5686 H   0  0  0  0  0  0  0  0  0  0  0  0
    6.5881    0.6816   -6.2280 C   0  0  0  0  0  0  0  0  0  0  0  0
    7.7311    0.3932   -7.2033 C   0  0  0  0  0  0  0  0  0  0  0  0
    8.8033    1.4762   -7.0672 C   0  0  0  0  0  0  0  0  0  0  0  0
    9.3435    1.4818   -5.6357 C   0  0  0  0  0  0  0  0  0  0  0  0
    8.2006    1.7702   -4.6604 C   0  0  2  0  0  0  0  0  0  0  0  0
    7.7652    2.7432   -4.8883 H   0  0  0  0  0  0  0  0  0  0  0  0
    8.7327    1.7758   -3.2505 C   0  0  0  0  0  0  0  0  0  0  0  0
    8.2989    0.9939   -2.4379 O   0  0  0  0  0  0  0  0  0  0  0  0
    1.4282    2.0415   -0.0006 C   0  0  0  0  0  0  0  0  0  0  0  0
   -0.0187    1.5272    0.0104 C   0  0  0  0  0  0  0  0  0  0  0  0
    0.0021   -0.0041    0.0020 C   0  0  0  0  0  0  0  0  0  0  0  0
    0.4848   -0.5101   -1.3585 C   0  0  0  0  0  0  0  0  0  0  0  0
    4.3968   -7.5557   -3.1642 H   0  0  0  0  0  0  0  0  0  0  0  0
    2.8539   -7.7467   -2.2975 H   0  0  0  0  0  0  0  0  0  0  0  0
    3.0835   -8.5158   -3.8862 H   0  0  0  0  0  0  0  0  0  0  0  0
    1.6948   -6.4707   -4.0798 H   0  0  0  0  0  0  0  0  0  0  0  0
    3.2377   -6.2796   -4.9465 H   0  0  0  0  0  0  0  0  0  0  0  0
    4.1827   -5.0719   -2.9978 H   0  0  0  0  0  0  0  0  0  0  0  0
    2.6397   -5.2630   -2.1312 H   0  0  0  0  0  0  0  0  0  0  0  0
    1.4806   -3.9869   -3.9135 H   0  0  0  0  0  0  0  0  0  0  0  0
    3.0235   -3.7959   -4.7802 H   0  0  0  0  0  0  0  0  0  0  0  0
    4.8997   -0.6337   -4.3573 H   0  0  0  0  0  0  0  0  0  0  0  0
    5.8243   -0.0899   -6.3250 H   0  0  0  0  0  0  0  0  0  0  0  0
    6.1528    1.6546   -6.4559 H   0  0  0  0  0  0  0  0  0  0  0  0
    7.3462    0.3892   -8.2231 H   0  0  0  0  0  0  0  0  0  0  0  0
    8.1664   -0.5798   -6.9754 H   0  0  0  0  0  0  0  0  0  0  0  0
    8.3680    2.4491   -7.2951 H   0  0  0  0  0  0  0  0  0  0  0  0
    9.6175    1.2707   -7.7620 H   0  0  0  0  0  0  0  0  0  0  0  0
   10.1074    2.2533   -5.5387 H   0  0  0  0  0  0  0  0  0  0  0  0
    9.7788    0.5089   -5.4078 H   0  0  0  0  0  0  0  0  0  0  0  0
    1.4365    3.1099   -0.2165 H   0  0  0  0  0  0  0  0  0  0  0  0
    1.8902    1.8589    0.9696 H   0  0  0  0  0  0  0  0  0  0  0  0
   -0.5423    1.8904   -0.8739 H   0  0  0  0  0  0  0  0  0  0  0  0
   -0.5253    1.8808    0.9085 H   0  0  0  0  0  0  0  0  0  0  0  0
    0.6755   -0.3614    0.7811 H   0  0  0  0  0  0  0  0  0  0  0  0
   -1.0028   -0.3809    0.1928 H   0  0  0  0  0  0  0  0  0  0  0  0
    0.6325   -1.5892   -1.3155 H   0  0  0  0  0  0  0  0  0  0  0  0
   -0.2561   -0.2707   -2.1213 H   0  0  0  0  0  0  0  0  0  0  0  0
    9.6886    2.6495   -2.8973 O   0  5  0  0  0  0  0  0  0  0  0  0
  1  2  1  0  0  0  0
  1 30  1  0  0  0  0
  1 31  1  0  0  0  0
  1 32  1  0  0  0  0
  2  3  1  0  0  0  0
  2 33  1  0  0  0  0
  2 34  1  0  0  0  0
  3  4  1  0  0  0  0
  3 35  1  0  0  0  0
  3 36  1  0  0  0  0
  4  5  1  0  0  0  0
  4 37  1  0  0  0  0
  4 38  1  0  0  0  0
  5  6  1  0  0  0  0
  6  7  2  0  0  0  0
  6  8  1  0  0  0  0
  8 12  2  0  0  0  0
  8  9  1  0  0  0  0
  9 29  1  0  0  0  0
  9 10  2  0  0  0  0
 10 11  1  0  0  0  0
 10 26  1  0  0  0  0
 11 12  1  0  0  0  0
 12 13  1  0  0  0  0
 13 14  1  0  0  0  0
 13 39  1  0  0  0  0
 14 15  2  0  0  0  0
 14 16  1  0  0  0  0
 16 17  1  0  0  0  0
 16 22  1  0  0  0  0
 16 18  1  0  0  0  0
 18 19  1  0  0  0  0
 18 40  1  0  0  0  0
 18 41  1  0  0  0  0
 19 20  1  0  0  0  0
 19 42  1  0  0  0  0
 19 43  1  0  0  0  0
 20 21  1  0  0  0  0
 20 44  1  0  0  0  0
 20 45  1  0  0  0  0
 21 22  1  0  0  0  0
 21 46  1  0  0  0  0
 21 47  1  0  0  0  0
 22 23  1  0  0  0  0
 22 24  1  0  0  0  0
 24 25  2  0  0  0  0
 24 56  1  0  0  0  0
 26 27  1  0  0  0  0
 26 48  1  0  0  0  0
 26 49  1  0  0  0  0
 27 28  1  0  0  0  0
 27 50  1  0  0  0  0
 27 51  1  0  0  0  0
 28 29  1  0  0  0  0
 28 52  1  0  0  0  0
 28 53  1  0  0  0  0
 29 54  1  0  0  0  0
 29 55  1  0  0  0  0
M  CHG  1  56  -1
M  END
$$$$
ZINC02108988
  -OEChem-08230709463D

 60 62  0     1  0  0  0  0  0999 V2000
    2.7521   -7.4314   -4.1577 C   0  0  0  0  0  0  0  0  0  0  0  0
    2.2610   -6.0573   -4.6177 C   0  0  0  0  0  0  0  0  0  0  0  0
    2.7313   -4.9899   -3.6276 C   0  0  0  0  0  0  0  0  0  0  0  0
    2.2401   -3.6158   -4.0875 C   0  0  0  0  0  0  0  0  0  0  0  0
    2.6865   -2.6028   -3.1479 O   0  0  0  0  0  0  0  0  0  0  0  0
    2.3349   -1.3272   -3.4099 C   0  0  0  0  0  0  0  0  0  0  0  0
    1.6730   -1.0693   -4.3973 O   0  0  0  0  0  0  0  0  0  0  0  0
    2.7501   -0.2529   -2.5055 C   0  0  0  0  0  0  0  0  0  0  0  0
    1.9215    0.1484   -1.3808 C   0  0  0  0  0  0  0  0  0  0  0  0
    2.4213    1.1513   -0.6271 C   0  0  0  0  0  0  0  0  0  0  0  0
    3.9658    1.5635   -1.3879 S   0  0  0  0  0  0  0  0  0  0  0  0
    3.9502    0.4209   -2.6903 C   0  0  0  0  0  0  0  0  0  0  0  0
    4.9041    0.2266   -3.6770 N   0  0  0  0  0  0  0  0  0  0  0  0
    6.0180    0.9851   -3.6962 C   0  0  0  0  0  0  0  0  0  0  0  0
    6.1858    1.8376   -2.8501 O   0  0  0  0  0  0  0  0  0  0  0  0
    7.0551    0.7738   -4.7690 C   0  0  1  0  0  0  0  0  0  0  0  0
    6.6053    0.2566   -5.6165 H   0  0  0  0  0  0  0  0  0  0  0  0
    7.6060    2.1265   -5.2254 C   0  0  0  0  0  0  0  0  0  0  0  0
    8.4503    2.7325   -4.1428 C   0  0  0  0  0  0  0  0  0  0  0  0
    8.9319    2.0687   -3.1413 C   0  0  0  0  0  0  0  0  0  0  0  0
    8.7044    0.6023   -2.9172 C   0  0  0  0  0  0  0  0  0  0  0  0
    8.2151   -0.0583   -4.2080 C   0  0  1  0  0  0  0  0  0  0  0  0
    9.0275   -0.0908   -4.9341 H   0  0  0  0  0  0  0  0  0  0  0  0
    7.7386   -1.4570   -3.9119 C   0  0  0  0  0  0  0  0  0  0  0  0
    6.5891   -1.7616   -4.1262 O   0  0  0  0  0  0  0  0  0  0  0  0
    9.7728    2.8148   -2.1378 C   0  0  0  0  0  0  0  0  0  0  0  0
    8.7561    4.2058   -4.2265 C   0  0  0  0  0  0  0  0  0  0  0  0
    1.7938    1.7701    0.5839 C   0  0  0  0  0  0  0  0  0  0  0  0
    0.3169    1.3521    0.6303 C   0  0  0  0  0  0  0  0  0  0  0  0
    0.2250   -0.1599    0.4050 C   0  0  0  0  0  0  0  0  0  0  0  0
    0.5803   -0.4923   -1.0453 C   0  0  0  0  0  0  0  0  0  0  0  0
    3.8412   -7.4317   -4.1132 H   0  0  0  0  0  0  0  0  0  0  0  0
    2.3480   -7.6495   -3.1691 H   0  0  0  0  0  0  0  0  0  0  0  0
    2.4170   -8.1918   -4.8630 H   0  0  0  0  0  0  0  0  0  0  0  0
    1.1719   -6.0569   -4.6621 H   0  0  0  0  0  0  0  0  0  0  0  0
    2.6650   -5.8392   -5.6062 H   0  0  0  0  0  0  0  0  0  0  0  0
    3.8204   -4.9902   -3.5831 H   0  0  0  0  0  0  0  0  0  0  0  0
    2.3272   -5.2079   -2.6390 H   0  0  0  0  0  0  0  0  0  0  0  0
    1.1510   -3.6154   -4.1320 H   0  0  0  0  0  0  0  0  0  0  0  0
    2.6442   -3.3977   -5.0761 H   0  0  0  0  0  0  0  0  0  0  0  0
    4.7699   -0.4553   -4.3537 H   0  0  0  0  0  0  0  0  0  0  0  0
    8.2121    1.9864   -6.1204 H   0  0  0  0  0  0  0  0  0  0  0  0
    6.7767    2.7958   -5.4542 H   0  0  0  0  0  0  0  0  0  0  0  0
    9.6384    0.1356   -2.6041 H   0  0  0  0  0  0  0  0  0  0  0  0
    7.9561    0.4680   -2.1361 H   0  0  0  0  0  0  0  0  0  0  0  0
    9.7941    3.8733   -2.3970 H   0  0  0  0  0  0  0  0  0  0  0  0
    9.3447    2.6929   -1.1428 H   0  0  0  0  0  0  0  0  0  0  0  0
   10.7879    2.4178   -2.1476 H   0  0  0  0  0  0  0  0  0  0  0  0
    8.2867    4.6243   -5.1168 H   0  0  0  0  0  0  0  0  0  0  0  0
    8.3678    4.7084   -3.3407 H   0  0  0  0  0  0  0  0  0  0  0  0
    9.8350    4.3503   -4.2826 H   0  0  0  0  0  0  0  0  0  0  0  0
    1.8663    2.8558    0.5207 H   0  0  0  0  0  0  0  0  0  0  0  0
    2.3032    1.4191    1.4813 H   0  0  0  0  0  0  0  0  0  0  0  0
   -0.2349    1.8723   -0.1526 H   0  0  0  0  0  0  0  0  0  0  0  0
   -0.1032    1.6025    1.6044 H   0  0  0  0  0  0  0  0  0  0  0  0
    0.9195   -0.6686    1.0736 H   0  0  0  0  0  0  0  0  0  0  0  0
   -0.7902   -0.4963    0.6153 H   0  0  0  0  0  0  0  0  0  0  0  0
    0.6515   -1.5733   -1.1655 H   0  0  0  0  0  0  0  0  0  0  0  0
   -0.1891   -0.0985   -1.7094 H   0  0  0  0  0  0  0  0  0  0  0  0
    8.5910   -2.3644   -3.4102 O   0  5  0  0  0  0  0  0  0  0  0  0
  1  2  1  0  0  0  0
  1 32  1  0  0  0  0
  1 33  1  0  0  0  0
  1 34  1  0  0  0  0
  2  3  1  0  0  0  0
  2 35  1  0  0  0  0
  2 36  1  0  0  0  0
  3  4  1  0  0  0  0
  3 37  1  0  0  0  0
  3 38  1  0  0  0  0
  4  5  1  0  0  0  0
  4 39  1  0  0  0  0
  4 40  1  0  0  0  0
  5  6  1  0  0  0  0
  6  7  2  0  0  0  0
  6  8  1  0  0  0  0
  8 12  2  0  0  0  0
  8  9  1  0  0  0  0
  9 31  1  0  0  0  0
  9 10  2  0  0  0  0
 10 11  1  0  0  0  0
 10 28  1  0  0  0  0
 11 12  1  0  0  0  0
 12 13  1  0  0  0  0
 13 14  1  0  0  0  0
 13 41  1  0  0  0  0
 14 15  2  0  0  0  0
 14 16  1  0  0  0  0
 16 17  1  0  0  0  0
 16 22  1  0  0  0  0
 16 18  1  0  0  0  0
 18 19  1  0  0  0  0
 18 42  1  0  0  0  0
 18 43  1  0  0  0  0
 19 20  2  0  0  0  0
 19 27  1  0  0  0  0
 20 21  1  0  0  0  0
 20 26  1  0  0  0  0
 21 22  1  0  0  0  0
 21 44  1  0  0  0  0
 21 45  1  0  0  0  0
 22 23  1  0  0  0  0
 22 24  1  0  0  0  0
 24 25  2  0  0  0  0
 24 60  1  0  0  0  0
 26 46  1  0  0  0  0
 26 47  1  0  0  0  0
 26 48  1  0  0  0  0
 27 49  1  0  0  0  0
 27 50  1  0  0  0  0
 27 51  1  0  0  0  0
 28 29  1  0  0  0  0
 28 52  1  0  0  0  0
 28 53  1  0  0  0  0
 29 30  1  0  0  0  0
 29 54  1  0  0  0  0
 29 55  1  0  0  0  0
 30 31  1  0  0  0  0
 30 56  1  0  0  0  0
 30 57  1  0  0  0  0
 31 58  1  0  0  0  0
 31 59  1  0  0  0  0
M  CHG  1  60  -1
M  END
$$$$
ZINC02108994
  -OEChem-08230709463D

 60 62  0     1  0  0  0  0  0999 V2000
   -5.6624   10.7352    4.0479 C   0  0  0  0  0  0  0  0  0  0  0  0
   -5.7202    9.2066    4.0804 C   0  0  0  0  0  0  0  0  0  0  0  0
   -4.3328    8.6506    4.4074 C   0  0  0  0  0  0  0  0  0  0  0  0
   -4.3906    7.1221    4.4399 C   0  0  0  0  0  0  0  0  0  0  0  0
   -3.0739    6.5945    4.7503 O   0  0  0  0  0  0  0  0  0  0  0  0
   -2.9521    5.2528    4.8174 C   0  0  0  0  0  0  0  0  0  0  0  0
   -3.9207    4.5436    4.6216 O   0  0  0  0  0  0  0  0  0  0  0  0
   -1.6537    4.6501    5.1259 C   0  0  0  0  0  0  0  0  0  0  0  0
   -1.2564    4.3756    6.4968 C   0  0  0  0  0  0  0  0  0  0  0  0
   -0.0343    3.8194    6.6411 C   0  0  0  0  0  0  0  0  0  0  0  0
    0.5845    3.6507    4.9910 S   0  0  0  0  0  0  0  0  0  0  0  0
   -0.7555    4.3196    4.1197 C   0  0  0  0  0  0  0  0  0  0  0  0
   -0.8986    4.4802    2.7504 N   0  0  0  0  0  0  0  0  0  0  0  0
    0.0910    4.0965    1.9198 C   0  0  0  0  0  0  0  0  0  0  0  0
    1.1067    3.6106    2.3704 O   0  0  0  0  0  0  0  0  0  0  0  0
   -0.0646    4.2712    0.4310 C   0  0  2  0  0  0  0  0  0  0  0  0
   -1.1217    4.3484    0.1766 H   0  0  0  0  0  0  0  0  0  0  0  0
    0.5530    3.0739   -0.2947 C   0  0  0  0  0  0  0  0  0  0  0  0
    2.0483    3.1095   -0.1736 C   0  0  0  0  0  0  0  0  0  0  0  0
    2.7229    4.1576    0.1757 C   0  0  0  0  0  0  0  0  0  0  0  0
    2.1040    5.4839    0.5073 C   0  0  0  0  0  0  0  0  0  0  0  0
    0.6681    5.5417   -0.0184 C   0  0  2  0  0  0  0  0  0  0  0  0
    0.6783    5.5930   -1.1072 H   0  0  0  0  0  0  0  0  0  0  0  0
   -0.0288    6.7540    0.5435 C   0  0  0  0  0  0  0  0  0  0  0  0
   -1.0225    6.6212    1.2178 O   0  0  0  0  0  0  0  0  0  0  0  0
    4.2236    4.0404    0.2478 C   0  0  0  0  0  0  0  0  0  0  0  0
    2.8117    1.8450   -0.4723 C   0  0  0  0  0  0  0  0  0  0  0  0
    0.6352    3.4301    7.9230 C   0  0  0  0  0  0  0  0  0  0  0  0
   -0.1162    4.0984    9.0836 C   0  0  0  0  0  0  0  0  0  0  0  0
   -1.6183    3.8643    8.8987 C   0  0  0  0  0  0  0  0  0  0  0  0
   -2.1289    4.6786    7.7087 C   0  0  0  0  0  0  0  0  0  0  0  0
   -6.6508   11.1313    3.8150 H   0  0  0  0  0  0  0  0  0  0  0  0
   -5.3419   11.1074    5.0210 H   0  0  0  0  0  0  0  0  0  0  0  0
   -4.9533   11.0559    3.2847 H   0  0  0  0  0  0  0  0  0  0  0  0
   -6.0407    8.8344    3.1073 H   0  0  0  0  0  0  0  0  0  0  0  0
   -6.4293    8.8860    4.8436 H   0  0  0  0  0  0  0  0  0  0  0  0
   -4.0123    9.0229    5.3805 H   0  0  0  0  0  0  0  0  0  0  0  0
   -3.6237    8.9713    3.6442 H   0  0  0  0  0  0  0  0  0  0  0  0
   -4.7111    6.7499    3.4668 H   0  0  0  0  0  0  0  0  0  0  0  0
   -5.0997    6.8014    5.2031 H   0  0  0  0  0  0  0  0  0  0  0  0
   -1.7110    4.8688    2.3900 H   0  0  0  0  0  0  0  0  0  0  0  0
    0.1745    2.1508    0.1443 H   0  0  0  0  0  0  0  0  0  0  0  0
    0.2802    3.1107   -1.3494 H   0  0  0  0  0  0  0  0  0  0  0  0
    2.0985    5.6197    1.5888 H   0  0  0  0  0  0  0  0  0  0  0  0
    2.6878    6.2805    0.0461 H   0  0  0  0  0  0  0  0  0  0  0  0
    4.6540    5.0165    0.4712 H   0  0  0  0  0  0  0  0  0  0  0  0
    4.4956    3.3350    1.0331 H   0  0  0  0  0  0  0  0  0  0  0  0
    4.6066    3.6847   -0.7087 H   0  0  0  0  0  0  0  0  0  0  0  0
    3.8682    1.9978   -0.2521 H   0  0  0  0  0  0  0  0  0  0  0  0
    2.4257    1.0333    0.1443 H   0  0  0  0  0  0  0  0  0  0  0  0
    2.6934    1.5893   -1.5253 H   0  0  0  0  0  0  0  0  0  0  0  0
    1.6714    3.7680    7.9135 H   0  0  0  0  0  0  0  0  0  0  0  0
    0.6033    2.3469    8.0403 H   0  0  0  0  0  0  0  0  0  0  0  0
    0.0895    5.1688    9.0837 H   0  0  0  0  0  0  0  0  0  0  0  0
    0.2081    3.6619   10.0283 H   0  0  0  0  0  0  0  0  0  0  0  0
   -2.1464    4.1719    9.8013 H   0  0  0  0  0  0  0  0  0  0  0  0
   -1.7987    2.8049    8.7168 H   0  0  0  0  0  0  0  0  0  0  0  0
   -2.0732    5.7417    7.9425 H   0  0  0  0  0  0  0  0  0  0  0  0
   -3.1614    4.4032    7.4936 H   0  0  0  0  0  0  0  0  0  0  0  0
    0.4546    7.9813    0.2949 O   0  5  0  0  0  0  0  0  0  0  0  0
  1  2  1  0  0  0  0
  1 32  1  0  0  0  0
  1 33  1  0  0  0  0
  1 34  1  0  0  0  0
  2  3  1  0  0  0  0
  2 35  1  0  0  0  0
  2 36  1  0  0  0  0
  3  4  1  0  0  0  0
  3 37  1  0  0  0  0
  3 38  1  0  0  0  0
  4  5  1  0  0  0  0
  4 39  1  0  0  0  0
  4 40  1  0  0  0  0
  5  6  1  0  0  0  0
  6  7  2  0  0  0  0
  6  8  1  0  0  0  0
  8 12  2  0  0  0  0
  8  9  1  0  0  0  0
  9 31  1  0  0  0  0
  9 10  2  0  0  0  0
 10 11  1  0  0  0  0
 10 28  1  0  0  0  0
 11 12  1  0  0  0  0
 12 13  1  0  0  0  0
 13 14  1  0  0  0  0
 13 41  1  0  0  0  0
 14 15  2  0  0  0  0
 14 16  1  0  0  0  0
 16 17  1  0  0  0  0
 16 22  1  0  0  0  0
 16 18  1  0  0  0  0
 18 19  1  0  0  0  0
 18 42  1  0  0  0  0
 18 43  1  0  0  0  0
 19 20  2  0  0  0  0
 19 27  1  0  0  0  0
 20 21  1  0  0  0  0
 20 26  1  0  0  0  0
 21 22  1  0  0  0  0
 21 44  1  0  0  0  0
 21 45  1  0  0  0  0
 22 23  1  0  0  0  0
 22 24  1  0  0  0  0
 24 25  2  0  0  0  0
 24 60  1  0  0  0  0
 26 46  1  0  0  0  0
 26 47  1  0  0  0  0
 26 48  1  0  0  0  0
 27 49  1  0  0  0  0
 27 50  1  0  0  0  0
 27 51  1  0  0  0  0
 28 29  1  0  0  0  0
 28 52  1  0  0  0  0
 28 53  1  0  0  0  0
 29 30  1  0  0  0  0
 29 54  1  0  0  0  0
 29 55  1  0  0  0  0
 30 31  1  0  0  0  0
 30 56  1  0  0  0  0
 30 57  1  0  0  0  0
 31 58  1  0  0  0  0
 31 59  1  0  0  0  0
M  CHG  1  60  -1
M  END
$$$$
ZINC02109063
  -OEChem-08230709463D

 54 56  0     1  0  0  0  0  0999 V2000
   -4.2340    4.2438   -3.1806 C   0  0  0  0  0  0  0  0  0  0  0  0
   -2.9392    3.4450   -3.0191 C   0  0  0  0  0  0  0  0  0  0  0  0
   -2.6772    3.1934   -1.5328 C   0  0  0  0  0  0  0  0  0  0  0  0
   -1.4484    2.4352   -1.3794 O   0  0  0  0  0  0  0  0  0  0  0  0
   -1.0715    2.1277   -0.1214 C   0  0  0  0  0  0  0  0  0  0  0  0
   -1.7522    2.4840    0.8217 O   0  0  0  0  0  0  0  0  0  0  0  0
    0.1570    1.3650    0.1092 C   0  0  0  0  0  0  0  0  0  0  0  0
    1.4442    2.0366    0.2891 C   0  0  0  0  0  0  0  0  0  0  0  0
    2.4924    1.2182    0.4889 C   0  0  0  0  0  0  0  0  0  0  0  0
    1.8046   -0.4186    0.4398 S   0  0  0  0  0  0  0  0  0  0  0  0
    0.1442   -0.0194    0.1592 C   0  0  0  0  0  0  0  0  0  0  0  0
   -0.9361   -0.8765    0.0186 N   0  0  0  0  0  0  0  0  0  0  0  0
   -0.7534   -2.2095    0.0980 C   0  0  0  0  0  0  0  0  0  0  0  0
    0.3561   -2.6590    0.2923 O   0  0  0  0  0  0  0  0  0  0  0  0
   -1.9279   -3.1414   -0.0549 C   0  0  1  0  0  0  0  0  0  0  0  0
   -2.7411   -2.6252   -0.5650 H   0  0  0  0  0  0  0  0  0  0  0  0
   -1.5083   -4.3689   -0.8665 C   0  0  0  0  0  0  0  0  0  0  0  0
   -0.5788   -5.2283   -0.0607 C   0  0  0  0  0  0  0  0  0  0  0  0
   -0.4430   -5.1436    1.2238 C   0  0  0  0  0  0  0  0  0  0  0  0
   -1.1884   -4.1668    2.0854 C   0  0  0  0  0  0  0  0  0  0  0  0
   -2.3966   -3.6112    1.3281 C   0  0  1  0  0  0  0  0  0  0  0  0
   -3.1488   -4.3918    1.2143 H   0  0  0  0  0  0  0  0  0  0  0  0
   -2.9792   -2.4474    2.0879 C   0  0  0  0  0  0  0  0  0  0  0  0
   -3.0176   -1.3522    1.5791 O   0  0  0  0  0  0  0  0  0  0  0  0
    0.5240   -6.0839    1.8957 C   0  0  0  0  0  0  0  0  0  0  0  0
    0.2484   -6.2536   -0.7926 C   0  0  0  0  0  0  0  0  0  0  0  0
    3.7772    1.9806    0.6690 C   0  0  0  0  0  0  0  0  0  0  0  0
    3.3315    3.4256    0.9840 C   0  0  0  0  0  0  0  0  0  0  0  0
    1.9462    3.4810    0.3097 C   0  0  0  0  0  0  0  0  0  0  0  0
   -4.1395    5.1978   -2.6618 H   0  0  0  0  0  0  0  0  0  0  0  0
   -4.4206    4.4231   -4.2395 H   0  0  0  0  0  0  0  0  0  0  0  0
   -5.0643    3.6798   -2.7558 H   0  0  0  0  0  0  0  0  0  0  0  0
   -2.1088    4.0090   -3.4439 H   0  0  0  0  0  0  0  0  0  0  0  0
   -3.0336    2.4911   -3.5379 H   0  0  0  0  0  0  0  0  0  0  0  0
   -3.5076    2.6293   -1.1079 H   0  0  0  0  0  0  0  0  0  0  0  0
   -2.5828    4.1473   -1.0139 H   0  0  0  0  0  0  0  0  0  0  0  0
   -1.8234   -0.5170   -0.1368 H   0  0  0  0  0  0  0  0  0  0  0  0
   -2.3939   -4.9457   -1.1331 H   0  0  0  0  0  0  0  0  0  0  0  0
   -1.0033   -4.0449   -1.7765 H   0  0  0  0  0  0  0  0  0  0  0  0
   -1.5295   -4.6700    2.9901 H   0  0  0  0  0  0  0  0  0  0  0  0
   -0.5247   -3.3466    2.3590 H   0  0  0  0  0  0  0  0  0  0  0  0
    1.0325   -6.6830    1.1403 H   0  0  0  0  0  0  0  0  0  0  0  0
    1.2591   -5.5083    2.4582 H   0  0  0  0  0  0  0  0  0  0  0  0
   -0.0200   -6.7406    2.5746 H   0  0  0  0  0  0  0  0  0  0  0  0
    0.0260   -6.2062   -1.8586 H   0  0  0  0  0  0  0  0  0  0  0  0
    1.3068   -6.0478   -0.6327 H   0  0  0  0  0  0  0  0  0  0  0  0
    0.0108   -7.2484   -0.4157 H   0  0  0  0  0  0  0  0  0  0  0  0
    4.3498    1.5696    1.5004 H   0  0  0  0  0  0  0  0  0  0  0  0
    4.3658    1.9557   -0.2481 H   0  0  0  0  0  0  0  0  0  0  0  0
    3.2484    3.5826    2.0594 H   0  0  0  0  0  0  0  0  0  0  0  0
    4.0122    4.1501    0.5369 H   0  0  0  0  0  0  0  0  0  0  0  0
    1.2689    4.1074    0.8901 H   0  0  0  0  0  0  0  0  0  0  0  0
    2.0365    3.8648   -0.7065 H   0  0  0  0  0  0  0  0  0  0  0  0
   -3.4555   -2.6276    3.3298 O   0  5  0  0  0  0  0  0  0  0  0  0
  1  2  1  0  0  0  0
  1 30  1  0  0  0  0
  1 31  1  0  0  0  0
  1 32  1  0  0  0  0
  2  3  1  0  0  0  0
  2 33  1  0  0  0  0
  2 34  1  0  0  0  0
  3  4  1  0  0  0  0
  3 35  1  0  0  0  0
  3 36  1  0  0  0  0
  4  5  1  0  0  0  0
  5  6  2  0  0  0  0
  5  7  1  0  0  0  0
  7 11  2  0  0  0  0
  7  8  1  0  0  0  0
  8 29  1  0  0  0  0
  8  9  2  0  0  0  0
  9 10  1  0  0  0  0
  9 27  1  0  0  0  0
 10 11  1  0  0  0  0
 11 12  1  0  0  0  0
 12 13  1  0  0  0  0
 12 37  1  0  0  0  0
 13 14  2  0  0  0  0
 13 15  1  0  0  0  0
 15 16  1  0  0  0  0
 15 21  1  0  0  0  0
 15 17  1  0  0  0  0
 17 18  1  0  0  0  0
 17 38  1  0  0  0  0
 17 39  1  0  0  0  0
 18 19  2  0  0  0  0
 18 26  1  0  0  0  0
 19 20  1  0  0  0  0
 19 25  1  0  0  0  0
 20 21  1  0  0  0  0
 20 40  1  0  0  0  0
 20 41  1  0  0  0  0
 21 22  1  0  0  0  0
 21 23  1  0  0  0  0
 23 24  2  0  0  0  0
 23 54  1  0  0  0  0
 25 42  1  0  0  0  0
 25 43  1  0  0  0  0
 25 44  1  0  0  0  0
 26 45  1  0  0  0  0
 26 46  1  0  0  0  0
 26 47  1  0  0  0  0
 27 28  1  0  0  0  0
 27 48  1  0  0  0  0
 27 49  1  0  0  0  0
 28 29  1  0  0  0  0
 28 50  1  0  0  0  0
 28 51  1  0  0  0  0
 29 52  1  0  0  0  0
 29 53  1  0  0  0  0
M  CHG  1  54  -1
M  END
$$$$
ZINC02109065
  -OEChem-08230709463D

 54 56  0     1  0  0  0  0  0999 V2000
   -5.8607   -0.5525    5.1158 C   0  0  0  0  0  0  0  0  0  0  0  0
   -4.4510   -0.6736    4.5335 C   0  0  0  0  0  0  0  0  0  0  0  0
   -4.5333   -0.7360    3.0070 C   0  0  0  0  0  0  0  0  0  0  0  0
   -3.1954   -0.8509    2.4545 O   0  0  0  0  0  0  0  0  0  0  0  0
   -3.0913   -0.9178    1.1114 C   0  0  0  0  0  0  0  0  0  0  0  0
   -4.0922   -0.8810    0.4211 O   0  0  0  0  0  0  0  0  0  0  0  0
   -1.7732   -1.0347    0.4841 C   0  0  0  0  0  0  0  0  0  0  0  0
   -1.0065    0.1517    0.1037 C   0  0  0  0  0  0  0  0  0  0  0  0
    0.1884   -0.0973   -0.4610 C   0  0  0  0  0  0  0  0  0  0  0  0
    0.3111   -1.8688   -0.4981 S   0  0  0  0  0  0  0  0  0  0  0  0
   -1.2063   -2.2728    0.2295 C   0  0  0  0  0  0  0  0  0  0  0  0
   -1.7275   -3.5297    0.4937 N   0  0  0  0  0  0  0  0  0  0  0  0
   -1.0230   -4.6327    0.1718 C   0  0  0  0  0  0  0  0  0  0  0  0
    0.0670   -4.5254   -0.3490 O   0  0  0  0  0  0  0  0  0  0  0  0
   -1.5897   -5.9992    0.4591 C   0  0  2  0  0  0  0  0  0  0  0  0
   -2.5349   -6.1224   -0.0696 H   0  0  0  0  0  0  0  0  0  0  0  0
   -1.8130   -6.1574    1.9647 C   0  0  0  0  0  0  0  0  0  0  0  0
   -2.1224   -7.5884    2.2938 C   0  0  0  0  0  0  0  0  0  0  0  0
   -1.8822   -8.5832    1.5012 C   0  0  0  0  0  0  0  0  0  0  0  0
   -1.2700   -8.4434    0.1382 C   0  0  0  0  0  0  0  0  0  0  0  0
   -0.5980   -7.0756    0.0000 C   0  0  1  0  0  0  0  0  0  0  0  0
    0.2949   -7.0413    0.6243 H   0  0  0  0  0  0  0  0  0  0  0  0
   -0.2196   -6.8353   -1.4388 C   0  0  0  0  0  0  0  0  0  0  0  0
   -0.6925   -5.8997   -2.0396 O   0  0  0  0  0  0  0  0  0  0  0  0
   -2.2401   -9.9678    1.9764 C   0  0  0  0  0  0  0  0  0  0  0  0
   -2.7525   -7.8859    3.6301 C   0  0  0  0  0  0  0  0  0  0  0  0
    0.9177    1.1691   -0.8199 C   0  0  0  0  0  0  0  0  0  0  0  0
    0.2034    2.2726   -0.0088 C   0  0  0  0  0  0  0  0  0  0  0  0
   -1.2021    1.6667    0.1758 C   0  0  0  0  0  0  0  0  0  0  0  0
   -6.4520   -1.4187    4.8189 H   0  0  0  0  0  0  0  0  0  0  0  0
   -5.8020   -0.5080    6.2033 H   0  0  0  0  0  0  0  0  0  0  0  0
   -6.3323    0.3555    4.7399 H   0  0  0  0  0  0  0  0  0  0  0  0
   -3.9794   -1.5815    4.9094 H   0  0  0  0  0  0  0  0  0  0  0  0
   -3.8596    0.1927    4.8304 H   0  0  0  0  0  0  0  0  0  0  0  0
   -5.0049    0.1719    2.6311 H   0  0  0  0  0  0  0  0  0  0  0  0
   -5.1246   -1.6022    2.7102 H   0  0  0  0  0  0  0  0  0  0  0  0
   -2.5993   -3.6155    0.9103 H   0  0  0  0  0  0  0  0  0  0  0  0
   -0.9130   -5.8505    2.4976 H   0  0  0  0  0  0  0  0  0  0  0  0
   -2.6465   -5.5270    2.2745 H   0  0  0  0  0  0  0  0  0  0  0  0
   -2.0477   -8.5420   -0.6191 H   0  0  0  0  0  0  0  0  0  0  0  0
   -0.5261   -9.2274   -0.0037 H   0  0  0  0  0  0  0  0  0  0  0  0
   -1.4251  -10.3665    2.5806 H   0  0  0  0  0  0  0  0  0  0  0  0
   -3.1488   -9.9224    2.5766 H   0  0  0  0  0  0  0  0  0  0  0  0
   -2.4051  -10.6160    1.1158 H   0  0  0  0  0  0  0  0  0  0  0  0
   -2.1478   -8.6209    4.1613 H   0  0  0  0  0  0  0  0  0  0  0  0
   -2.8090   -6.9693    4.2172 H   0  0  0  0  0  0  0  0  0  0  0  0
   -3.7563   -8.2826    3.4782 H   0  0  0  0  0  0  0  0  0  0  0  0
    1.9655    1.1002   -0.5274 H   0  0  0  0  0  0  0  0  0  0  0  0
    0.8343    1.3659   -1.8887 H   0  0  0  0  0  0  0  0  0  0  0  0
    0.1558    3.2034   -0.5742 H   0  0  0  0  0  0  0  0  0  0  0  0
    0.6911    2.4271    0.9536 H   0  0  0  0  0  0  0  0  0  0  0  0
   -1.8644    1.9999   -0.6232 H   0  0  0  0  0  0  0  0  0  0  0  0
   -1.6098    1.9485    1.1466 H   0  0  0  0  0  0  0  0  0  0  0  0
    0.6427   -7.6605   -2.0528 O   0  5  0  0  0  0  0  0  0  0  0  0
  1  2  1  0  0  0  0
  1 30  1  0  0  0  0
  1 31  1  0  0  0  0
  1 32  1  0  0  0  0
  2  3  1  0  0  0  0
  2 33  1  0  0  0  0
  2 34  1  0  0  0  0
  3  4  1  0  0  0  0
  3 35  1  0  0  0  0
  3 36  1  0  0  0  0
  4  5  1  0  0  0  0
  5  6  2  0  0  0  0
  5  7  1  0  0  0  0
  7 11  2  0  0  0  0
  7  8  1  0  0  0  0
  8 29  1  0  0  0  0
  8  9  2  0  0  0  0
  9 10  1  0  0  0  0
  9 27  1  0  0  0  0
 10 11  1  0  0  0  0
 11 12  1  0  0  0  0
 12 13  1  0  0  0  0
 12 37  1  0  0  0  0
 13 14  2  0  0  0  0
 13 15  1  0  0  0  0
 15 16  1  0  0  0  0
 15 21  1  0  0  0  0
 15 17  1  0  0  0  0
 17 18  1  0  0  0  0
 17 38  1  0  0  0  0
 17 39  1  0  0  0  0
 18 19  2  0  0  0  0
 18 26  1  0  0  0  0
 19 20  1  0  0  0  0
 19 25  1  0  0  0  0
 20 21  1  0  0  0  0
 20 40  1  0  0  0  0
 20 41  1  0  0  0  0
 21 22  1  0  0  0  0
 21 23  1  0  0  0  0
 23 24  2  0  0  0  0
 23 54  1  0  0  0  0
 25 42  1  0  0  0  0
 25 43  1  0  0  0  0
 25 44  1  0  0  0  0
 26 45  1  0  0  0  0
 26 46  1  0  0  0  0
 26 47  1  0  0  0  0
 27 28  1  0  0  0  0
 27 48  1  0  0  0  0
 27 49  1  0  0  0  0
 28 29  1  0  0  0  0
 28 50  1  0  0  0  0
 28 51  1  0  0  0  0
 29 52  1  0  0  0  0
 29 53  1  0  0  0  0
M  CHG  1  54  -1
M  END
$$$$
ZINC02109067
  -OEChem-08230709463D

 54 56  0     1  0  0  0  0  0999 V2000
   -5.3088    4.6831   -4.4038 C   0  0  0  0  0  0  0  0  0  0  0  0
   -5.3265    3.8879   -3.0969 C   0  0  0  0  0  0  0  0  0  0  0  0
   -5.0460    2.4133   -3.3933 C   0  0  0  0  0  0  0  0  0  0  0  0
   -5.0629    1.6586   -2.1529 O   0  0  0  0  0  0  0  0  0  0  0  0
   -4.8314    0.3326   -2.2398 C   0  0  0  0  0  0  0  0  0  0  0  0
   -4.6211   -0.1784   -3.3234 O   0  0  0  0  0  0  0  0  0  0  0  0
   -4.8331   -0.4918   -1.0295 C   0  0  0  0  0  0  0  0  0  0  0  0
   -6.0600   -1.1235   -0.5439 C   0  0  0  0  0  0  0  0  0  0  0  0
   -5.9214   -1.8541    0.5766 C   0  0  0  0  0  0  0  0  0  0  0  0
   -4.1997   -1.7223    0.9928 S   0  0  0  0  0  0  0  0  0  0  0  0
   -3.6730   -0.7017   -0.3019 C   0  0  0  0  0  0  0  0  0  0  0  0
   -2.3990   -0.2171   -0.5531 N   0  0  0  0  0  0  0  0  0  0  0  0
   -1.3831   -0.5310    0.2752 C   0  0  0  0  0  0  0  0  0  0  0  0
   -1.5838   -1.2375    1.2402 O   0  0  0  0  0  0  0  0  0  0  0  0
    0.0021   -0.0041    0.0020 C   0  0  1  0  0  0  0  0  0  0  0  0
    0.3447   -0.3605   -0.9694 H   0  0  0  0  0  0  0  0  0  0  0  0
   -0.0187    1.5260    0.0104 C   0  0  0  0  0  0  0  0  0  0  0  0
    1.3830    2.0620   -0.0001 C   0  0  0  0  0  0  0  0  0  0  0  0
    2.4293    1.3623    0.3020 C   0  0  0  0  0  0  0  0  0  0  0  0
    2.3879   -0.0853    0.6952 C   0  0  0  0  0  0  0  0  0  0  0  0
    0.9654   -0.4822    1.0958 C   0  0  2  0  0  0  0  0  0  0  0  0
    0.7042   -0.0134    2.0446 H   0  0  0  0  0  0  0  0  0  0  0  0
    0.8762   -1.9806    1.2297 C   0  0  0  0  0  0  0  0  0  0  0  0
    0.1207   -2.6063    0.5243 O   0  0  0  0  0  0  0  0  0  0  0  0
    3.7725    2.0440    0.2560 C   0  0  0  0  0  0  0  0  0  0  0  0
    1.5850    3.5044   -0.3869 C   0  0  0  0  0  0  0  0  0  0  0  0
   -7.2221   -2.4742    1.0104 C   0  0  0  0  0  0  0  0  0  0  0  0
   -8.1303   -2.3857   -0.2359 C   0  0  0  0  0  0  0  0  0  0  0  0
   -7.5244   -1.1797   -0.9810 C   0  0  0  0  0  0  0  0  0  0  0  0
   -5.5086    5.7336   -4.1927 H   0  0  0  0  0  0  0  0  0  0  0  0
   -4.3304    4.5868   -4.8745 H   0  0  0  0  0  0  0  0  0  0  0  0
   -6.0748    4.2954   -5.0754 H   0  0  0  0  0  0  0  0  0  0  0  0
   -6.3050    3.9841   -2.6262 H   0  0  0  0  0  0  0  0  0  0  0  0
   -4.5606    4.2755   -2.4252 H   0  0  0  0  0  0  0  0  0  0  0  0
   -4.0676    2.3170   -3.8639 H   0  0  0  0  0  0  0  0  0  0  0  0
   -5.8120    2.0256   -4.0649 H   0  0  0  0  0  0  0  0  0  0  0  0
   -2.2385    0.3480   -1.3250 H   0  0  0  0  0  0  0  0  0  0  0  0
   -0.5494    1.8850   -0.8714 H   0  0  0  0  0  0  0  0  0  0  0  0
   -0.5324    1.8755    0.9060 H   0  0  0  0  0  0  0  0  0  0  0  0
    3.0598   -0.2503    1.5375 H   0  0  0  0  0  0  0  0  0  0  0  0
    2.7094   -0.6961   -0.1484 H   0  0  0  0  0  0  0  0  0  0  0  0
    4.2000    1.9375   -0.7410 H   0  0  0  0  0  0  0  0  0  0  0  0
    3.6512    3.1020    0.4883 H   0  0  0  0  0  0  0  0  0  0  0  0
    4.4379    1.5853    0.9874 H   0  0  0  0  0  0  0  0  0  0  0  0
    1.5349    4.1300    0.5043 H   0  0  0  0  0  0  0  0  0  0  0  0
    2.5609    3.6210   -0.8581 H   0  0  0  0  0  0  0  0  0  0  0  0
    0.8054    3.8056   -1.0865 H   0  0  0  0  0  0  0  0  0  0  0  0
   -7.0702   -3.5148    1.2970 H   0  0  0  0  0  0  0  0  0  0  0  0
   -7.6538   -1.9118    1.8383 H   0  0  0  0  0  0  0  0  0  0  0  0
   -8.0576   -3.2922   -0.8368 H   0  0  0  0  0  0  0  0  0  0  0  0
   -9.1644   -2.1902    0.0481 H   0  0  0  0  0  0  0  0  0  0  0  0
   -8.0389   -0.2624   -0.6949 H   0  0  0  0  0  0  0  0  0  0  0  0
   -7.5909   -1.3299   -2.0586 H   0  0  0  0  0  0  0  0  0  0  0  0
    1.6362   -2.6201    2.1326 O   0  5  0  0  0  0  0  0  0  0  0  0
  1  2  1  0  0  0  0
  1 30  1  0  0  0  0
  1 31  1  0  0  0  0
  1 32  1  0  0  0  0
  2  3  1  0  0  0  0
  2 33  1  0  0  0  0
  2 34  1  0  0  0  0
  3  4  1  0  0  0  0
  3 35  1  0  0  0  0
  3 36  1  0  0  0  0
  4  5  1  0  0  0  0
  5  6  2  0  0  0  0
  5  7  1  0  0  0  0
  7 11  2  0  0  0  0
  7  8  1  0  0  0  0
  8 29  1  0  0  0  0
  8  9  2  0  0  0  0
  9 10  1  0  0  0  0
  9 27  1  0  0  0  0
 10 11  1  0  0  0  0
 11 12  1  0  0  0  0
 12 13  1  0  0  0  0
 12 37  1  0  0  0  0
 13 14  2  0  0  0  0
 13 15  1  0  0  0  0
 15 16  1  0  0  0  0
 15 21  1  0  0  0  0
 15 17  1  0  0  0  0
 17 18  1  0  0  0  0
 17 38  1  0  0  0  0
 17 39  1  0  0  0  0
 18 19  2  0  0  0  0
 18 26  1  0  0  0  0
 19 20  1  0  0  0  0
 19 25  1  0  0  0  0
 20 21  1  0  0  0  0
 20 40  1  0  0  0  0
 20 41  1  0  0  0  0
 21 22  1  0  0  0  0
 21 23  1  0  0  0  0
 23 24  2  0  0  0  0
 23 54  1  0  0  0  0
 25 42  1  0  0  0  0
 25 43  1  0  0  0  0
 25 44  1  0  0  0  0
 26 45  1  0  0  0  0
 26 46  1  0  0  0  0
 26 47  1  0  0  0  0
 27 28  1  0  0  0  0
 27 48  1  0  0  0  0
 27 49  1  0  0  0  0
 28 29  1  0  0  0  0
 28 50  1  0  0  0  0
 28 51  1  0  0  0  0
 29 52  1  0  0  0  0
 29 53  1  0  0  0  0
M  CHG  1  54  -1
M  END
$$$$
ZINC02109068
  -OEChem-08230709463D

 54 56  0     1  0  0  0  0  0999 V2000
    3.4209   -4.4377   -6.2148 C   0  0  0  0  0  0  0  0  0  0  0  0
    2.1821   -3.8339   -5.5503 C   0  0  0  0  0  0  0  0  0  0  0  0
    2.5231   -3.4182   -4.1179 C   0  0  0  0  0  0  0  0  0  0  0  0
    1.3474   -2.8451   -3.4873 O   0  0  0  0  0  0  0  0  0  0  0  0
    1.4798   -2.4248   -2.2125 C   0  0  0  0  0  0  0  0  0  0  0  0
    2.5494   -2.5346   -1.6438 O   0  0  0  0  0  0  0  0  0  0  0  0
    0.3358   -1.8363   -1.5131 C   0  0  0  0  0  0  0  0  0  0  0  0
    0.0770   -0.3971   -1.5595 C   0  0  0  0  0  0  0  0  0  0  0  0
   -1.0045    0.0111   -0.8723 C   0  0  0  0  0  0  0  0  0  0  0  0
   -1.6833   -1.4735   -0.1725 S   0  0  0  0  0  0  0  0  0  0  0  0
   -0.5416   -2.6218   -0.7834 C   0  0  0  0  0  0  0  0  0  0  0  0
   -0.5117   -3.9939   -0.5891 N   0  0  0  0  0  0  0  0  0  0  0  0
   -1.4607   -4.5892    0.1602 C   0  0  0  0  0  0  0  0  0  0  0  0
   -2.3408   -3.9243    0.6645 O   0  0  0  0  0  0  0  0  0  0  0  0
   -1.4282   -6.0809    0.3715 C   0  0  2  0  0  0  0  0  0  0  0  0
   -0.8338   -6.5492   -0.4130 H   0  0  0  0  0  0  0  0  0  0  0  0
   -2.8537   -6.6364    0.3377 C   0  0  0  0  0  0  0  0  0  0  0  0
   -3.6069   -6.2021    1.5608 C   0  0  0  0  0  0  0  0  0  0  0  0
   -3.0455   -5.7464    2.6345 C   0  0  0  0  0  0  0  0  0  0  0  0
   -1.5636   -5.5797    2.8026 C   0  0  0  0  0  0  0  0  0  0  0  0
   -0.8179   -6.3942    1.7435 C   0  0  2  0  0  0  0  0  0  0  0  0
   -0.9243   -7.4577    1.9576 H   0  0  0  0  0  0  0  0  0  0  0  0
    0.6407   -6.0157    1.7474 C   0  0  0  0  0  0  0  0  0  0  0  0
    1.1450   -5.5433    0.7562 O   0  0  0  0  0  0  0  0  0  0  0  0
   -3.9354   -5.3596    3.7875 C   0  0  0  0  0  0  0  0  0  0  0  0
   -5.1104   -6.3023    1.5375 C   0  0  0  0  0  0  0  0  0  0  0  0
   -1.2023    1.5001   -0.9641 C   0  0  0  0  0  0  0  0  0  0  0  0
    0.1568    2.0437   -1.4574 C   0  0  0  0  0  0  0  0  0  0  0  0
    0.7284    0.8247   -2.2087 C   0  0  0  0  0  0  0  0  0  0  0  0
    3.7463   -5.3117   -5.6505 H   0  0  0  0  0  0  0  0  0  0  0  0
    3.1779   -4.7339   -7.2352 H   0  0  0  0  0  0  0  0  0  0  0  0
    4.2211   -3.6978   -6.2319 H   0  0  0  0  0  0  0  0  0  0  0  0
    1.3819   -4.5738   -5.5331 H   0  0  0  0  0  0  0  0  0  0  0  0
    1.8567   -2.9599   -6.1146 H   0  0  0  0  0  0  0  0  0  0  0  0
    3.3233   -2.6782   -4.1351 H   0  0  0  0  0  0  0  0  0  0  0  0
    2.8485   -4.2922   -3.5536 H   0  0  0  0  0  0  0  0  0  0  0  0
    0.1922   -4.5256   -0.9924 H   0  0  0  0  0  0  0  0  0  0  0  0
   -3.3645   -6.2667   -0.5514 H   0  0  0  0  0  0  0  0  0  0  0  0
   -2.8165   -7.7253    0.3064 H   0  0  0  0  0  0  0  0  0  0  0  0
   -1.3042   -4.5263    2.6967 H   0  0  0  0  0  0  0  0  0  0  0  0
   -1.2713   -5.9258    3.7940 H   0  0  0  0  0  0  0  0  0  0  0  0
   -4.5722   -6.2032    4.0539 H   0  0  0  0  0  0  0  0  0  0  0  0
   -3.3207   -5.0837    4.6443 H   0  0  0  0  0  0  0  0  0  0  0  0
   -4.5570   -4.5122    3.4984 H   0  0  0  0  0  0  0  0  0  0  0  0
   -5.4189   -7.2435    1.9925 H   0  0  0  0  0  0  0  0  0  0  0  0
   -5.5386   -5.4707    2.0972 H   0  0  0  0  0  0  0  0  0  0  0  0
   -5.4611   -6.2651    0.5062 H   0  0  0  0  0  0  0  0  0  0  0  0
   -1.9888    1.7355   -1.6812 H   0  0  0  0  0  0  0  0  0  0  0  0
   -1.4439    1.9126    0.0155 H   0  0  0  0  0  0  0  0  0  0  0  0
    0.0174    2.8878   -2.1327 H   0  0  0  0  0  0  0  0  0  0  0  0
    0.7948    2.3190   -0.6176 H   0  0  0  0  0  0  0  0  0  0  0  0
    1.8111    0.7826   -2.0900 H   0  0  0  0  0  0  0  0  0  0  0  0
    0.4670    0.8745   -3.2657 H   0  0  0  0  0  0  0  0  0  0  0  0
    1.3799   -6.2035    2.8521 O   0  5  0  0  0  0  0  0  0  0  0  0
  1  2  1  0  0  0  0
  1 30  1  0  0  0  0
  1 31  1  0  0  0  0
  1 32  1  0  0  0  0
  2  3  1  0  0  0  0
  2 33  1  0  0  0  0
  2 34  1  0  0  0  0
  3  4  1  0  0  0  0
  3 35  1  0  0  0  0
  3 36  1  0  0  0  0
  4  5  1  0  0  0  0
  5  6  2  0  0  0  0
  5  7  1  0  0  0  0
  7 11  2  0  0  0  0
  7  8  1  0  0  0  0
  8 29  1  0  0  0  0
  8  9  2  0  0  0  0
  9 10  1  0  0  0  0
  9 27  1  0  0  0  0
 10 11  1  0  0  0  0
 11 12  1  0  0  0  0
 12 13  1  0  0  0  0
 12 37  1  0  0  0  0
 13 14  2  0  0  0  0
 13 15  1  0  0  0  0
 15 16  1  0  0  0  0
 15 21  1  0  0  0  0
 15 17  1  0  0  0  0
 17 18  1  0  0  0  0
 17 38  1  0  0  0  0
 17 39  1  0  0  0  0
 18 19  2  0  0  0  0
 18 26  1  0  0  0  0
 19 20  1  0  0  0  0
 19 25  1  0  0  0  0
 20 21  1  0  0  0  0
 20 40  1  0  0  0  0
 20 41  1  0  0  0  0
 21 22  1  0  0  0  0
 21 23  1  0  0  0  0
 23 24  2  0  0  0  0
 23 54  1  0  0  0  0
 25 42  1  0  0  0  0
 25 43  1  0  0  0  0
 25 44  1  0  0  0  0
 26 45  1  0  0  0  0
 26 46  1  0  0  0  0
 26 47  1  0  0  0  0
 27 28  1  0  0  0  0
 27 48  1  0  0  0  0
 27 49  1  0  0  0  0
 28 29  1  0  0  0  0
 28 50  1  0  0  0  0
 28 51  1  0  0  0  0
 29 52  1  0  0  0  0
 29 53  1  0  0  0  0
M  CHG  1  54  -1
M  END
$$$$
ZINC02112279
  -OEChem-08230709463D

 53 55  0     1  0  0  0  0  0999 V2000
    5.5553    3.6351   -3.4925 C   0  0  0  0  0  0  0  0  0  0  0  0
    5.1682    3.4526   -2.0236 C   0  0  0  0  0  0  0  0  0  0  0  0
    3.8869    2.6213   -1.9333 C   0  0  0  0  0  0  0  0  0  0  0  0
    3.4998    2.4389   -0.4644 C   0  0  0  0  0  0  0  0  0  0  0  0
    2.2378    1.6201   -0.3754 C   0  0  0  0  0  0  0  0  0  0  0  0
    1.0061    2.2497   -0.3830 C   0  0  0  0  0  0  0  0  0  0  0  0
   -0.1530    1.5050   -0.3023 C   0  0  0  0  0  0  0  0  0  0  0  0
   -0.0808    0.1159   -0.2130 C   0  0  0  0  0  0  0  0  0  0  0  0
    1.1630   -0.5131   -0.2058 C   0  0  0  0  0  0  0  0  0  0  0  0
    2.3154    0.2418   -0.2870 C   0  0  0  0  0  0  0  0  0  0  0  0
   -1.3229   -0.6899   -0.1255 C   0  0  0  0  0  0  0  0  0  0  0  0
   -1.3936   -1.9161   -0.7258 C   0  0  0  0  0  0  0  0  0  0  0  0
   -3.0616   -2.3985   -0.2985 S   0  0  0  0  0  0  0  0  0  0  0  0
   -3.4910   -0.9265    0.6201 C   0  0  0  0  0  0  0  0  0  0  0  0
   -2.3760   -0.2259    0.5305 N   0  0  0  0  0  0  0  0  0  0  0  0
   -4.6824   -0.6051    1.2589 N   0  0  0  0  0  0  0  0  0  0  0  0
   -5.7158   -1.4699    1.2325 C   0  0  0  0  0  0  0  0  0  0  0  0
   -5.6058   -2.5286    0.6512 O   0  0  0  0  0  0  0  0  0  0  0  0
   -7.0079   -1.1213    1.9253 C   0  0  1  0  0  0  0  0  0  0  0  0
   -7.0691   -0.0420    2.0651 H   0  0  0  0  0  0  0  0  0  0  0  0
   -8.1902   -1.6029    1.0815 C   0  0  0  0  0  0  0  0  0  0  0  0
   -8.2632   -3.1017    1.1020 C   0  0  0  0  0  0  0  0  0  0  0  0
   -7.6603   -3.8453    1.9733 C   0  0  0  0  0  0  0  0  0  0  0  0
   -6.7958   -3.3132    3.0785 C   0  0  0  0  0  0  0  0  0  0  0  0
   -7.0674   -1.8220    3.2885 C   0  0  1  0  0  0  0  0  0  0  0  0
   -8.0552   -1.6846    3.7283 H   0  0  0  0  0  0  0  0  0  0  0  0
   -6.0204   -1.2403    4.2032 C   0  0  0  0  0  0  0  0  0  0  0  0
   -5.2982   -0.3554    3.8091 O   0  0  0  0  0  0  0  0  0  0  0  0
   -0.3530   -2.6571   -1.5253 C   0  0  0  0  0  0  0  0  0  0  0  0
    4.7511    4.1489   -4.0191 H   0  0  0  0  0  0  0  0  0  0  0  0
    6.4682    4.2273   -3.5569 H   0  0  0  0  0  0  0  0  0  0  0  0
    5.7225    2.6591   -3.9482 H   0  0  0  0  0  0  0  0  0  0  0  0
    5.0010    4.4286   -1.5680 H   0  0  0  0  0  0  0  0  0  0  0  0
    5.9725    2.9388   -1.4970 H   0  0  0  0  0  0  0  0  0  0  0  0
    4.0541    1.6454   -2.3889 H   0  0  0  0  0  0  0  0  0  0  0  0
    3.0827    3.1351   -2.4599 H   0  0  0  0  0  0  0  0  0  0  0  0
    3.3326    3.4149   -0.0088 H   0  0  0  0  0  0  0  0  0  0  0  0
    4.3041    1.9251    0.0622 H   0  0  0  0  0  0  0  0  0  0  0  0
    0.9514    3.3261   -0.4523 H   0  0  0  0  0  0  0  0  0  0  0  0
   -1.1142    1.9973   -0.3128 H   0  0  0  0  0  0  0  0  0  0  0  0
    1.2248   -1.5891   -0.1371 H   0  0  0  0  0  0  0  0  0  0  0  0
    3.2798   -0.2444   -0.2811 H   0  0  0  0  0  0  0  0  0  0  0  0
   -4.7704    0.2417    1.7237 H   0  0  0  0  0  0  0  0  0  0  0  0
   -9.1145   -1.1906    1.4861 H   0  0  0  0  0  0  0  0  0  0  0  0
   -8.0638   -1.2614    0.0542 H   0  0  0  0  0  0  0  0  0  0  0  0
   -8.8554   -3.5903    0.3424 H   0  0  0  0  0  0  0  0  0  0  0  0
   -7.7869   -4.9154    1.9000 H   0  0  0  0  0  0  0  0  0  0  0  0
   -5.7472   -3.4562    2.8178 H   0  0  0  0  0  0  0  0  0  0  0  0
   -7.0162   -3.8537    3.9990 H   0  0  0  0  0  0  0  0  0  0  0  0
    0.2448   -3.2772   -0.8573 H   0  0  0  0  0  0  0  0  0  0  0  0
   -0.8449   -3.2891   -2.2647 H   0  0  0  0  0  0  0  0  0  0  0  0
    0.2937   -1.9409   -2.0321 H   0  0  0  0  0  0  0  0  0  0  0  0
   -5.8903   -1.7052    5.4556 O   0  5  0  0  0  0  0  0  0  0  0  0
  1  2  1  0  0  0  0
  1 30  1  0  0  0  0
  1 31  1  0  0  0  0
  1 32  1  0  0  0  0
  2  3  1  0  0  0  0
  2 33  1  0  0  0  0
  2 34  1  0  0  0  0
  3  4  1  0  0  0  0
  3 35  1  0  0  0  0
  3 36  1  0  0  0  0
  4  5  1  0  0  0  0
  4 37  1  0  0  0  0
  4 38  1  0  0  0  0
  5 10  2  0  0  0  0
  5  6  1  0  0  0  0
  6  7  2  0  0  0  0
  6 39  1  0  0  0  0
  7  8  1  0  0  0  0
  7 40  1  0  0  0  0
  8  9  2  0  0  0  0
  8 11  1  0  0  0  0
  9 10  1  0  0  0  0
  9 41  1  0  0  0  0
 10 42  1  0  0  0  0
 11 15  1  0  0  0  0
 11 12  2  0  0  0  0
 12 13  1  0  0  0  0
 12 29  1  0  0  0  0
 13 14  1  0  0  0  0
 14 15  2  0  0  0  0
 14 16  1  0  0  0  0
 16 17  1  0  0  0  0
 16 43  1  0  0  0  0
 17 18  2  0  0  0  0
 17 19  1  0  0  0  0
 19 20  1  0  0  0  0
 19 25  1  0  0  0  0
 19 21  1  0  0  0  0
 21 22  1  0  0  0  0
 21 44  1  0  0  0  0
 21 45  1  0  0  0  0
 22 23  2  0  0  0  0
 22 46  1  0  0  0  0
 23 24  1  0  0  0  0
 23 47  1  0  0  0  0
 24 25  1  0  0  0  0
 24 48  1  0  0  0  0
 24 49  1  0  0  0  0
 25 26  1  0  0  0  0
 25 27  1  0  0  0  0
 27 28  2  0  0  0  0
 27 53  1  0  0  0  0
 29 50  1  0  0  0  0
 29 51  1  0  0  0  0
 29 52  1  0  0  0  0
M  CHG  1  53  -1
M  END
$$$$
ZINC02112285
  -OEChem-08230709463D

 53 55  0     1  0  0  0  0  0999 V2000
    0.1267   10.5493    2.0207 C   0  0  0  0  0  0  0  0  0  0  0  0
    1.2485    9.6509    2.5454 C   0  0  0  0  0  0  0  0  0  0  0  0
    1.0394    8.2235    2.0356 C   0  0  0  0  0  0  0  0  0  0  0  0
    2.1613    7.3251    2.5603 C   0  0  0  0  0  0  0  0  0  0  0  0
    1.9553    5.9192    2.0582 C   0  0  0  0  0  0  0  0  0  0  0  0
    2.5170    5.5276    0.8563 C   0  0  0  0  0  0  0  0  0  0  0  0
    2.3314    4.2416    0.3914 C   0  0  0  0  0  0  0  0  0  0  0  0
    1.5765    3.3365    1.1356 C   0  0  0  0  0  0  0  0  0  0  0  0
    1.0085    3.7383    2.3434 C   0  0  0  0  0  0  0  0  0  0  0  0
    1.2048    5.0254    2.8009 C   0  0  0  0  0  0  0  0  0  0  0  0
    1.3734    1.9530    0.6413 C   0  0  0  0  0  0  0  0  0  0  0  0
    2.4155    1.2546    0.0978 C   0  0  0  0  0  0  0  0  0  0  0  0
    1.6061   -0.2883   -0.3045 S   0  0  0  0  0  0  0  0  0  0  0  0
   -0.0217    0.1528    0.2875 C   0  0  0  0  0  0  0  0  0  0  0  0
    0.1806    1.3826    0.7218 N   0  0  0  0  0  0  0  0  0  0  0  0
   -1.1901   -0.5994    0.2899 N   0  0  0  0  0  0  0  0  0  0  0  0
   -1.1859   -1.8524   -0.2065 C   0  0  0  0  0  0  0  0  0  0  0  0
   -0.1623   -2.3234   -0.6553 O   0  0  0  0  0  0  0  0  0  0  0  0
   -2.4530   -2.6681   -0.2039 C   0  0  2  0  0  0  0  0  0  0  0  0
   -3.1426   -2.2714    0.5412 H   0  0  0  0  0  0  0  0  0  0  0  0
   -2.1251   -4.1265    0.1235 C   0  0  0  0  0  0  0  0  0  0  0  0
   -1.3939   -4.7587   -1.0307 C   0  0  0  0  0  0  0  0  0  0  0  0
   -1.3674   -4.2707   -2.2293 C   0  0  0  0  0  0  0  0  0  0  0  0
   -2.0554   -3.0002   -2.6352 C   0  0  0  0  0  0  0  0  0  0  0  0
   -3.1049   -2.6124   -1.5913 C   0  0  2  0  0  0  0  0  0  0  0  0
   -3.9390   -3.3129   -1.6326 H   0  0  0  0  0  0  0  0  0  0  0  0
   -3.6025   -1.2158   -1.8615 C   0  0  0  0  0  0  0  0  0  0  0  0
   -3.4531   -0.3502   -1.0319 O   0  0  0  0  0  0  0  0  0  0  0  0
    3.8497    1.6701   -0.1059 C   0  0  0  0  0  0  0  0  0  0  0  0
   -0.8340   10.1745    2.3737 H   0  0  0  0  0  0  0  0  0  0  0  0
    0.2757   11.5662    2.3839 H   0  0  0  0  0  0  0  0  0  0  0  0
    0.1393   10.5472    0.9308 H   0  0  0  0  0  0  0  0  0  0  0  0
    1.2360    9.6530    3.6353 H   0  0  0  0  0  0  0  0  0  0  0  0
    2.2093   10.0257    2.1924 H   0  0  0  0  0  0  0  0  0  0  0  0
    1.0520    8.2215    0.9457 H   0  0  0  0  0  0  0  0  0  0  0  0
    0.0787    7.8488    2.3886 H   0  0  0  0  0  0  0  0  0  0  0  0
    2.1487    7.3272    3.6502 H   0  0  0  0  0  0  0  0  0  0  0  0
    3.1220    7.6999    2.2073 H   0  0  0  0  0  0  0  0  0  0  0  0
    3.1017    6.2297    0.2805 H   0  0  0  0  0  0  0  0  0  0  0  0
    2.7704    3.9369   -0.5471 H   0  0  0  0  0  0  0  0  0  0  0  0
    0.4187    3.0426    2.9218 H   0  0  0  0  0  0  0  0  0  0  0  0
    0.7683    5.3367    3.7384 H   0  0  0  0  0  0  0  0  0  0  0  0
   -2.0087   -0.2227    0.6489 H   0  0  0  0  0  0  0  0  0  0  0  0
   -1.5020   -4.1650    1.0169 H   0  0  0  0  0  0  0  0  0  0  0  0
   -3.0506   -4.6724    0.3072 H   0  0  0  0  0  0  0  0  0  0  0  0
   -0.8564   -5.6770   -0.8458 H   0  0  0  0  0  0  0  0  0  0  0  0
   -0.8163   -4.8116   -2.9843 H   0  0  0  0  0  0  0  0  0  0  0  0
   -2.5416   -3.1450   -3.5999 H   0  0  0  0  0  0  0  0  0  0  0  0
   -1.3184   -2.2016   -2.7205 H   0  0  0  0  0  0  0  0  0  0  0  0
    4.4233    0.8233   -0.4828 H   0  0  0  0  0  0  0  0  0  0  0  0
    3.8924    2.4872   -0.8260 H   0  0  0  0  0  0  0  0  0  0  0  0
    4.2707    2.0002    0.8438 H   0  0  0  0  0  0  0  0  0  0  0  0
   -4.2117   -0.9335   -3.0238 O   0  5  0  0  0  0  0  0  0  0  0  0
  1  2  1  0  0  0  0
  1 30  1  0  0  0  0
  1 31  1  0  0  0  0
  1 32  1  0  0  0  0
  2  3  1  0  0  0  0
  2 33  1  0  0  0  0
  2 34  1  0  0  0  0
  3  4  1  0  0  0  0
  3 35  1  0  0  0  0
  3 36  1  0  0  0  0
  4  5  1  0  0  0  0
  4 37  1  0  0  0  0
  4 38  1  0  0  0  0
  5 10  2  0  0  0  0
  5  6  1  0  0  0  0
  6  7  2  0  0  0  0
  6 39  1  0  0  0  0
  7  8  1  0  0  0  0
  7 40  1  0  0  0  0
  8  9  2  0  0  0  0
  8 11  1  0  0  0  0
  9 10  1  0  0  0  0
  9 41  1  0  0  0  0
 10 42  1  0  0  0  0
 11 15  1  0  0  0  0
 11 12  2  0  0  0  0
 12 13  1  0  0  0  0
 12 29  1  0  0  0  0
 13 14  1  0  0  0  0
 14 15  2  0  0  0  0
 14 16  1  0  0  0  0
 16 17  1  0  0  0  0
 16 43  1  0  0  0  0
 17 18  2  0  0  0  0
 17 19  1  0  0  0  0
 19 20  1  0  0  0  0
 19 25  1  0  0  0  0
 19 21  1  0  0  0  0
 21 22  1  0  0  0  0
 21 44  1  0  0  0  0
 21 45  1  0  0  0  0
 22 23  2  0  0  0  0
 22 46  1  0  0  0  0
 23 24  1  0  0  0  0
 23 47  1  0  0  0  0
 24 25  1  0  0  0  0
 24 48  1  0  0  0  0
 24 49  1  0  0  0  0
 25 26  1  0  0  0  0
 25 27  1  0  0  0  0
 27 28  2  0  0  0  0
 27 53  1  0  0  0  0
 29 50  1  0  0  0  0
 29 51  1  0  0  0  0
 29 52  1  0  0  0  0
M  CHG  1  53  -1
M  END
$$$$
ZINC02115167
  -OEChem-08230709463D

 56 58  0     1  0  0  0  0  0999 V2000
    5.4002    5.7555   -0.9454 C   0  0  0  0  0  0  0  0  0  0  0  0
    6.8441    5.5147   -0.5873 C   0  0  0  0  0  0  0  0  0  0  0  0
    7.2343    4.2906   -0.4297 C   0  0  0  0  0  0  0  0  0  0  0  0
    8.6384    3.8943   -0.0781 C   0  0  2  0  0  0  0  0  0  0  0  0
    9.4083    5.0995    0.4621 C   0  0  2  0  0  0  0  0  0  0  0  0
    9.0262    5.3615    1.4487 H   0  0  0  0  0  0  0  0  0  0  0  0
    9.2072    6.2784   -0.4985 C   0  0  0  0  0  0  0  0  0  0  0  0
    7.7402    6.7089   -0.4360 C   0  0  0  0  0  0  0  0  0  0  0  0
   10.8749    4.7656    0.5544 C   0  0  0  0  0  0  0  0  0  0  0  0
   11.7043    5.1991   -0.3623 C   0  0  0  0  0  0  0  0  0  0  0  0
   11.3875    3.9331    1.7013 C   0  0  0  0  0  0  0  0  0  0  0  0
    9.3446    3.3664   -1.3285 C   0  0  0  0  0  0  0  0  0  0  0  0
    8.6039    2.7937    0.9841 C   0  0  0  0  0  0  0  0  0  0  0  0
    7.8649    3.3036    2.2230 C   0  0  0  0  0  0  0  0  0  0  0  0
    7.8866    2.2426    3.2930 C   0  0  0  0  0  0  0  0  0  0  0  0
    8.4367    1.1870    3.0859 O   0  0  0  0  0  0  0  0  0  0  0  0
    6.2138    3.1955   -0.6042 C   0  0  0  0  0  0  0  0  0  0  0  0
    6.5543    2.4043   -1.7444 O   0  0  0  0  0  0  0  0  0  0  0  0
    5.7305    1.3677   -2.0435 C   0  0  0  0  0  0  0  0  0  0  0  0
    4.6134    1.1208   -1.2476 C   0  0  0  0  0  0  0  0  0  0  0  0
    3.7761    0.0821   -1.5345 C   0  0  0  0  0  0  0  0  0  0  0  0
    4.0404   -0.7403   -2.6359 C   0  0  0  0  0  0  0  0  0  0  0  0
    3.1593   -1.8618   -2.9681 C   0  0  0  0  0  0  0  0  0  0  0  0
    3.4729   -2.6269   -4.0459 C   0  0  0  0  0  0  0  0  0  0  0  0
    4.6154   -2.3219   -4.8139 C   0  0  0  0  0  0  0  0  0  0  0  0
    4.8827   -3.0133   -5.7803 O   0  0  0  0  0  0  0  0  0  0  0  0
    5.4187   -1.2921   -4.5043 O   0  0  0  0  0  0  0  0  0  0  0  0
    5.1668   -0.4960   -3.4432 C   0  0  0  0  0  0  0  0  0  0  0  0
    6.0073    0.5636   -3.1369 C   0  0  0  0  0  0  0  0  0  0  0  0
    4.8015    5.7925   -0.0353 H   0  0  0  0  0  0  0  0  0  0  0  0
    5.3110    6.7024   -1.4778 H   0  0  0  0  0  0  0  0  0  0  0  0
    5.0439    4.9457   -1.5821 H   0  0  0  0  0  0  0  0  0  0  0  0
    9.4556    5.9700   -1.5140 H   0  0  0  0  0  0  0  0  0  0  0  0
    9.8462    7.1101   -0.2016 H   0  0  0  0  0  0  0  0  0  0  0  0
    7.5369    7.4172   -1.2392 H   0  0  0  0  0  0  0  0  0  0  0  0
    7.5448    7.1880    0.5234 H   0  0  0  0  0  0  0  0  0  0  0  0
   11.3370    5.7957   -1.1842 H   0  0  0  0  0  0  0  0  0  0  0  0
   12.7554    4.9598   -0.2961 H   0  0  0  0  0  0  0  0  0  0  0  0
   11.4379    2.8876    1.3972 H   0  0  0  0  0  0  0  0  0  0  0  0
   12.3821    4.2776    1.9842 H   0  0  0  0  0  0  0  0  0  0  0  0
   10.7131    4.0320    2.5519 H   0  0  0  0  0  0  0  0  0  0  0  0
    9.2937    4.1159   -2.1183 H   0  0  0  0  0  0  0  0  0  0  0  0
   10.3880    3.1552   -1.0947 H   0  0  0  0  0  0  0  0  0  0  0  0
    8.8550    2.4519   -1.6635 H   0  0  0  0  0  0  0  0  0  0  0  0
    8.0865    1.9207    0.5861 H   0  0  0  0  0  0  0  0  0  0  0  0
    9.6230    2.5193    1.2563 H   0  0  0  0  0  0  0  0  0  0  0  0
    8.3553    4.2037    2.5938 H   0  0  0  0  0  0  0  0  0  0  0  0
    6.8323    3.5342    1.9608 H   0  0  0  0  0  0  0  0  0  0  0  0
    5.2281    3.6374   -0.7499 H   0  0  0  0  0  0  0  0  0  0  0  0
    6.2016    2.5652    0.2849 H   0  0  0  0  0  0  0  0  0  0  0  0
    4.4092    1.7555   -0.3979 H   0  0  0  0  0  0  0  0  0  0  0  0
    2.9117   -0.1041   -0.9144 H   0  0  0  0  0  0  0  0  0  0  0  0
    2.2864   -2.0774   -2.3698 H   0  0  0  0  0  0  0  0  0  0  0  0
    2.8469   -3.4646   -4.3157 H   0  0  0  0  0  0  0  0  0  0  0  0
    6.8752    0.7611   -3.7487 H   0  0  0  0  0  0  0  0  0  0  0  0
    7.2948    2.4704    4.4761 O   0  5  0  0  0  0  0  0  0  0  0  0
  1  2  1  0  0  0  0
  1 30  1  0  0  0  0
  1 31  1  0  0  0  0
  1 32  1  0  0  0  0
  2  8  1  0  0  0  0
  2  3  2  0  0  0  0
  3  4  1  0  0  0  0
  3 17  1  0  0  0  0
  4  5  1  0  0  0  0
  4 12  1  0  0  0  0
  4 13  1  0  0  0  0
  5  6  1  0  0  0  0
  5  7  1  0  0  0  0
  5  9  1  0  0  0  0
  7  8  1  0  0  0  0
  7 33  1  0  0  0  0
  7 34  1  0  0  0  0
  8 35  1  0  0  0  0
  8 36  1  0  0  0  0
  9 10  2  0  0  0  0
  9 11  1  0  0  0  0
 10 37  1  0  0  0  0
 10 38  1  0  0  0  0
 11 39  1  0  0  0  0
 11 40  1  0  0  0  0
 11 41  1  0  0  0  0
 12 42  1  0  0  0  0
 12 43  1  0  0  0  0
 12 44  1  0  0  0  0
 13 14  1  0  0  0  0
 13 45  1  0  0  0  0
 13 46  1  0  0  0  0
 14 15  1  0  0  0  0
 14 47  1  0  0  0  0
 14 48  1  0  0  0  0
 15 16  2  0  0  0  0
 15 56  1  0  0  0  0
 17 18  1  0  0  0  0
 17 49  1  0  0  0  0
 17 50  1  0  0  0  0
 18 19  1  0  0  0  0
 19 29  2  0  0  0  0
 19 20  1  0  0  0  0
 20 21  2  0  0  0  0
 20 51  1  0  0  0  0
 21 22  1  0  0  0  0
 21 52  1  0  0  0  0
 22 28  2  0  0  0  0
 22 23  1  0  0  0  0
 23 24  2  0  0  0  0
 23 53  1  0  0  0  0
 24 25  1  0  0  0  0
 24 54  1  0  0  0  0
 25 26  2  0  0  0  0
 25 27  1  0  0  0  0
 27 28  1  0  0  0  0
 28 29  1  0  0  0  0
 29 55  1  0  0  0  0
M  CHG  1  56  -1
M  END
$$$$
ZINC02115169
  -OEChem-08230709463D

 56 58  0     1  0  0  0  0  0999 V2000
   -3.8792   -0.3718   -0.6931 C   0  0  0  0  0  0  0  0  0  0  0  0
   -2.5625    0.3550   -0.5972 C   0  0  0  0  0  0  0  0  0  0  0  0
   -2.2984    0.9903    0.4993 C   0  0  0  0  0  0  0  0  0  0  0  0
   -1.0327    1.7686    0.7414 C   0  0  2  0  0  0  0  0  0  0  0  0
    0.0333    1.3589   -0.2772 C   0  0  1  0  0  0  0  0  0  0  0  0
    0.3773    0.3475   -0.0608 H   0  0  0  0  0  0  0  0  0  0  0  0
   -0.5866    1.4037   -1.6796 C   0  0  0  0  0  0  0  0  0  0  0  0
   -1.6394    0.2976   -1.7789 C   0  0  0  0  0  0  0  0  0  0  0  0
    1.1957    2.3153   -0.2064 C   0  0  0  0  0  0  0  0  0  0  0  0
    2.2729    1.9885    0.4637 C   0  0  0  0  0  0  0  0  0  0  0  0
    1.1190    3.6476   -0.9064 C   0  0  0  0  0  0  0  0  0  0  0  0
   -0.5186    1.4869    2.1546 C   0  0  0  0  0  0  0  0  0  0  0  0
   -1.3222    3.2642    0.5988 C   0  0  0  0  0  0  0  0  0  0  0  0
   -2.5057    3.6420    1.4918 C   0  0  0  0  0  0  0  0  0  0  0  0
   -2.6994    5.1362    1.4636 C   0  0  0  0  0  0  0  0  0  0  0  0
   -1.9661    5.8280    0.7975 O   0  0  0  0  0  0  0  0  0  0  0  0
   -3.3220    0.9481    1.6045 C   0  0  0  0  0  0  0  0  0  0  0  0
   -3.3394   -0.3562    2.1881 O   0  0  0  0  0  0  0  0  0  0  0  0
   -4.2130   -0.5643    3.2060 C   0  0  0  0  0  0  0  0  0  0  0  0
   -5.0342    0.4766    3.6356 C   0  0  0  0  0  0  0  0  0  0  0  0
   -5.9220    0.2815    4.6535 C   0  0  0  0  0  0  0  0  0  0  0  0
   -5.9997   -0.9685    5.2784 C   0  0  0  0  0  0  0  0  0  0  0  0
   -6.9383   -1.2047    6.3774 C   0  0  0  0  0  0  0  0  0  0  0  0
   -6.9668   -2.4396    6.9428 C   0  0  0  0  0  0  0  0  0  0  0  0
   -6.1057   -3.4492    6.4660 C   0  0  0  0  0  0  0  0  0  0  0  0
   -6.1414   -4.5520    6.9818 O   0  0  0  0  0  0  0  0  0  0  0  0
   -5.2479   -3.2263    5.4579 O   0  0  0  0  0  0  0  0  0  0  0  0
   -5.1691   -2.0218    4.8529 C   0  0  0  0  0  0  0  0  0  0  0  0
   -4.2770   -1.8078    3.8129 C   0  0  0  0  0  0  0  0  0  0  0  0
   -4.0030   -0.7679   -1.7010 H   0  0  0  0  0  0  0  0  0  0  0  0
   -3.8943   -1.1925    0.0241 H   0  0  0  0  0  0  0  0  0  0  0  0
   -4.6926    0.3191   -0.4718 H   0  0  0  0  0  0  0  0  0  0  0  0
   -1.0576    2.3734   -1.8412 H   0  0  0  0  0  0  0  0  0  0  0  0
    0.1885    1.2401   -2.4282 H   0  0  0  0  0  0  0  0  0  0  0  0
   -2.2160    0.4289   -2.6946 H   0  0  0  0  0  0  0  0  0  0  0  0
   -1.1431   -0.6726   -1.8005 H   0  0  0  0  0  0  0  0  0  0  0  0
    3.1060    2.6740    0.5145 H   0  0  0  0  0  0  0  0  0  0  0  0
    2.3279    1.0337    0.9654 H   0  0  0  0  0  0  0  0  0  0  0  0
    1.1214    4.4477   -0.1662 H   0  0  0  0  0  0  0  0  0  0  0  0
    1.9787    3.7611   -1.5668 H   0  0  0  0  0  0  0  0  0  0  0  0
    0.2014    3.6978   -1.4926 H   0  0  0  0  0  0  0  0  0  0  0  0
    0.3924    2.0590    2.3306 H   0  0  0  0  0  0  0  0  0  0  0  0
   -1.2766    1.7781    2.8817 H   0  0  0  0  0  0  0  0  0  0  0  0
   -0.3053    0.4230    2.2584 H   0  0  0  0  0  0  0  0  0  0  0  0
   -0.4434    3.8346    0.8996 H   0  0  0  0  0  0  0  0  0  0  0  0
   -1.5640    3.4900   -0.4398 H   0  0  0  0  0  0  0  0  0  0  0  0
   -3.4079    3.1517    1.1260 H   0  0  0  0  0  0  0  0  0  0  0  0
   -2.3066    3.3207    2.5141 H   0  0  0  0  0  0  0  0  0  0  0  0
   -3.0645    1.6837    2.3665 H   0  0  0  0  0  0  0  0  0  0  0  0
   -4.3067    1.1768    1.1967 H   0  0  0  0  0  0  0  0  0  0  0  0
   -4.9710    1.4425    3.1566 H   0  0  0  0  0  0  0  0  0  0  0  0
   -6.5587    1.0906    4.9795 H   0  0  0  0  0  0  0  0  0  0  0  0
   -7.5904   -0.4187    6.7285 H   0  0  0  0  0  0  0  0  0  0  0  0
   -7.6475   -2.6476    7.7550 H   0  0  0  0  0  0  0  0  0  0  0  0
   -3.6344   -2.6082    3.4770 H   0  0  0  0  0  0  0  0  0  0  0  0
   -3.6866    5.6986    2.1783 O   0  5  0  0  0  0  0  0  0  0  0  0
  1  2  1  0  0  0  0
  1 30  1  0  0  0  0
  1 31  1  0  0  0  0
  1 32  1  0  0  0  0
  2  8  1  0  0  0  0
  2  3  2  0  0  0  0
  3  4  1  0  0  0  0
  3 17  1  0  0  0  0
  4  5  1  0  0  0  0
  4 12  1  0  0  0  0
  4 13  1  0  0  0  0
  5  6  1  0  0  0  0
  5  7  1  0  0  0  0
  5  9  1  0  0  0  0
  7  8  1  0  0  0  0
  7 33  1  0  0  0  0
  7 34  1  0  0  0  0
  8 35  1  0  0  0  0
  8 36  1  0  0  0  0
  9 10  2  0  0  0  0
  9 11  1  0  0  0  0
 10 37  1  0  0  0  0
 10 38  1  0  0  0  0
 11 39  1  0  0  0  0
 11 40  1  0  0  0  0
 11 41  1  0  0  0  0
 12 42  1  0  0  0  0
 12 43  1  0  0  0  0
 12 44  1  0  0  0  0
 13 14  1  0  0  0  0
 13 45  1  0  0  0  0
 13 46  1  0  0  0  0
 14 15  1  0  0  0  0
 14 47  1  0  0  0  0
 14 48  1  0  0  0  0
 15 16  2  0  0  0  0
 15 56  1  0  0  0  0
 17 18  1  0  0  0  0
 17 49  1  0  0  0  0
 17 50  1  0  0  0  0
 18 19  1  0  0  0  0
 19 29  2  0  0  0  0
 19 20  1  0  0  0  0
 20 21  2  0  0  0  0
 20 51  1  0  0  0  0
 21 22  1  0  0  0  0
 21 52  1  0  0  0  0
 22 28  2  0  0  0  0
 22 23  1  0  0  0  0
 23 24  2  0  0  0  0
 23 53  1  0  0  0  0
 24 25  1  0  0  0  0
 24 54  1  0  0  0  0
 25 26  2  0  0  0  0
 25 27  1  0  0  0  0
 27 28  1  0  0  0  0
 28 29  1  0  0  0  0
 29 55  1  0  0  0  0
M  CHG  1  56  -1
M  END
$$$$
ZINC02115171
  -OEChem-08230709463D

 56 58  0     1  0  0  0  0  0999 V2000
   -3.0693    0.1176   -0.8744 C   0  0  0  0  0  0  0  0  0  0  0  0
   -4.5291    0.2747   -0.5346 C   0  0  0  0  0  0  0  0  0  0  0  0
   -5.0336    1.4665   -0.5611 C   0  0  0  0  0  0  0  0  0  0  0  0
   -6.4711    1.7777   -0.2632 C   0  0  1  0  0  0  0  0  0  0  0  0
   -7.1222    0.6059    0.4746 C   0  0  2  0  0  0  0  0  0  0  0  0
   -6.7217    0.5418    1.4863 H   0  0  0  0  0  0  0  0  0  0  0  0
   -6.8076   -0.6850   -0.2919 C   0  0  0  0  0  0  0  0  0  0  0  0
   -5.3062   -0.9597   -0.1817 C   0  0  0  0  0  0  0  0  0  0  0  0
   -8.6142    0.8098    0.5324 C   0  0  0  0  0  0  0  0  0  0  0  0
   -9.3982    0.1448   -0.2796 C   0  0  0  0  0  0  0  0  0  0  0  0
   -9.2044    1.7787    1.5244 C   0  0  0  0  0  0  0  0  0  0  0  0
   -6.5479    3.0302    0.6122 C   0  0  0  0  0  0  0  0  0  0  0  0
   -7.2178    2.0292   -1.5747 C   0  0  0  0  0  0  0  0  0  0  0  0
   -6.5326    3.1611   -2.3429 C   0  0  0  0  0  0  0  0  0  0  0  0
   -7.3517    3.5111   -3.5585 C   0  0  0  0  0  0  0  0  0  0  0  0
   -8.3782    2.9162   -3.7870 O   0  0  0  0  0  0  0  0  0  0  0  0
   -4.1221    2.6119   -0.9193 C   0  0  0  0  0  0  0  0  0  0  0  0
   -3.5351    3.1434    0.2702 O   0  0  0  0  0  0  0  0  0  0  0  0
   -2.6816    4.1886    0.1224 C   0  0  0  0  0  0  0  0  0  0  0  0
   -2.4223    4.6944   -1.1502 C   0  0  0  0  0  0  0  0  0  0  0  0
   -1.5625    5.7410   -1.3159 C   0  0  0  0  0  0  0  0  0  0  0  0
   -0.9417    6.3144   -0.2001 C   0  0  0  0  0  0  0  0  0  0  0  0
   -0.0157    7.4393   -0.3478 C   0  0  0  0  0  0  0  0  0  0  0  0
    0.5542    7.9528    0.7734 C   0  0  0  0  0  0  0  0  0  0  0  0
    0.2458    7.3997    2.0332 C   0  0  0  0  0  0  0  0  0  0  0  0
    0.7638    7.8696    3.0303 O   0  0  0  0  0  0  0  0  0  0  0  0
   -0.6041    6.3688    2.1617 O   0  0  0  0  0  0  0  0  0  0  0  0
   -1.2044    5.8121    1.0879 C   0  0  0  0  0  0  0  0  0  0  0  0
   -2.0805    4.7477    1.2380 C   0  0  0  0  0  0  0  0  0  0  0  0
   -2.4667    0.3138    0.0124 H   0  0  0  0  0  0  0  0  0  0  0  0
   -2.8844   -0.8989   -1.2218 H   0  0  0  0  0  0  0  0  0  0  0  0
   -2.8010    0.8244   -1.6596 H   0  0  0  0  0  0  0  0  0  0  0  0
   -7.3647   -1.5146    0.1433 H   0  0  0  0  0  0  0  0  0  0  0  0
   -7.0822   -0.5651   -1.3399 H   0  0  0  0  0  0  0  0  0  0  0  0
   -5.0680   -1.2613    0.8383 H   0  0  0  0  0  0  0  0  0  0  0  0
   -5.0342   -1.7613   -0.8684 H   0  0  0  0  0  0  0  0  0  0  0  0
  -10.4675    0.2910   -0.2381 H   0  0  0  0  0  0  0  0  0  0  0  0
   -8.9753   -0.5495   -0.9905 H   0  0  0  0  0  0  0  0  0  0  0  0
   -8.4094    2.1939    2.1438 H   0  0  0  0  0  0  0  0  0  0  0  0
   -9.7071    2.5848    0.9899 H   0  0  0  0  0  0  0  0  0  0  0  0
   -9.9235    1.2583    2.1569 H   0  0  0  0  0  0  0  0  0  0  0  0
   -6.0413    3.8552    0.1114 H   0  0  0  0  0  0  0  0  0  0  0  0
   -7.5924    3.2930    0.7795 H   0  0  0  0  0  0  0  0  0  0  0  0
   -6.0647    2.8345    1.5695 H   0  0  0  0  0  0  0  0  0  0  0  0
   -7.2072    1.1218   -2.1786 H   0  0  0  0  0  0  0  0  0  0  0  0
   -8.2487    2.3092   -1.3580 H   0  0  0  0  0  0  0  0  0  0  0  0
   -6.4456    4.0364   -1.6991 H   0  0  0  0  0  0  0  0  0  0  0  0
   -5.5390    2.8392   -2.6546 H   0  0  0  0  0  0  0  0  0  0  0  0
   -4.6970    3.3908   -1.4201 H   0  0  0  0  0  0  0  0  0  0  0  0
   -3.3357    2.2559   -1.5848 H   0  0  0  0  0  0  0  0  0  0  0  0
   -2.9013    4.2521   -2.0112 H   0  0  0  0  0  0  0  0  0  0  0  0
   -1.3618    6.1259   -2.3048 H   0  0  0  0  0  0  0  0  0  0  0  0
    0.2082    7.8492   -1.3215 H   0  0  0  0  0  0  0  0  0  0  0  0
    1.2418    8.7823    0.6999 H   0  0  0  0  0  0  0  0  0  0  0  0
   -2.2901    4.3530    2.2213 H   0  0  0  0  0  0  0  0  0  0  0  0
   -6.9408    4.4837   -4.3873 O   0  5  0  0  0  0  0  0  0  0  0  0
  1  2  1  0  0  0  0
  1 30  1  0  0  0  0
  1 31  1  0  0  0  0
  1 32  1  0  0  0  0
  2  8  1  0  0  0  0
  2  3  2  0  0  0  0
  3  4  1  0  0  0  0
  3 17  1  0  0  0  0
  4  5  1  0  0  0  0
  4 12  1  0  0  0  0
  4 13  1  0  0  0  0
  5  6  1  0  0  0  0
  5  7  1  0  0  0  0
  5  9  1  0  0  0  0
  7  8  1  0  0  0  0
  7 33  1  0  0  0  0
  7 34  1  0  0  0  0
  8 35  1  0  0  0  0
  8 36  1  0  0  0  0
  9 10  2  0  0  0  0
  9 11  1  0  0  0  0
 10 37  1  0  0  0  0
 10 38  1  0  0  0  0
 11 39  1  0  0  0  0
 11 40  1  0  0  0  0
 11 41  1  0  0  0  0
 12 42  1  0  0  0  0
 12 43  1  0  0  0  0
 12 44  1  0  0  0  0
 13 14  1  0  0  0  0
 13 45  1  0  0  0  0
 13 46  1  0  0  0  0
 14 15  1  0  0  0  0
 14 47  1  0  0  0  0
 14 48  1  0  0  0  0
 15 16  2  0  0  0  0
 15 56  1  0  0  0  0
 17 18  1  0  0  0  0
 17 49  1  0  0  0  0
 17 50  1  0  0  0  0
 18 19  1  0  0  0  0
 19 29  2  0  0  0  0
 19 20  1  0  0  0  0
 20 21  2  0  0  0  0
 20 51  1  0  0  0  0
 21 22  1  0  0  0  0
 21 52  1  0  0  0  0
 22 28  2  0  0  0  0
 22 23  1  0  0  0  0
 23 24  2  0  0  0  0
 23 53  1  0  0  0  0
 24 25  1  0  0  0  0
 24 54  1  0  0  0  0
 25 26  2  0  0  0  0
 25 27  1  0  0  0  0
 27 28  1  0  0  0  0
 28 29  1  0  0  0  0
 29 55  1  0  0  0  0
M  CHG  1  56  -1
M  END
$$$$
ZINC02115173
  -OEChem-08230709463D

 56 58  0     1  0  0  0  0  0999 V2000
    4.6515    1.7408   -0.1360 C   0  0  0  0  0  0  0  0  0  0  0  0
    4.8129    0.2430   -0.0972 C   0  0  0  0  0  0  0  0  0  0  0  0
    3.8226   -0.4629    0.3461 C   0  0  0  0  0  0  0  0  0  0  0  0
    3.8410   -1.9592    0.4594 C   0  0  1  0  0  0  0  0  0  0  0  0
    4.9684   -2.5376   -0.4013 C   0  0  1  0  0  0  0  0  0  0  0  0
    4.7269   -2.4165   -1.4573 H   0  0  0  0  0  0  0  0  0  0  0  0
    6.2604   -1.7769   -0.0773 C   0  0  0  0  0  0  0  0  0  0  0  0
    6.1120   -0.3373   -0.5743 C   0  0  0  0  0  0  0  0  0  0  0  0
    5.1495   -4.0004   -0.0877 C   0  0  0  0  0  0  0  0  0  0  0  0
    6.0718   -4.3788    0.7622 C   0  0  0  0  0  0  0  0  0  0  0  0
    4.2697   -5.0280   -0.7519 C   0  0  0  0  0  0  0  0  0  0  0  0
    4.0590   -2.3545    1.9213 C   0  0  0  0  0  0  0  0  0  0  0  0
    2.5010   -2.5206   -0.0203 C   0  0  0  0  0  0  0  0  0  0  0  0
    2.3387   -2.2447   -1.5164 C   0  0  0  0  0  0  0  0  0  0  0  0
    0.9668   -2.6813   -1.9619 C   0  0  0  0  0  0  0  0  0  0  0  0
    0.1978   -3.1636   -1.1645 O   0  0  0  0  0  0  0  0  0  0  0  0
    2.5759    0.2634    0.7811 C   0  0  0  0  0  0  0  0  0  0  0  0
    2.2341   -0.1316    2.1112 O   0  0  0  0  0  0  0  0  0  0  0  0
    1.1277    0.4345    2.6571 C   0  0  0  0  0  0  0  0  0  0  0  0
    0.3867    1.3555    1.9187 C   0  0  0  0  0  0  0  0  0  0  0  0
   -0.7245    1.9379    2.4556 C   0  0  0  0  0  0  0  0  0  0  0  0
   -1.1293    1.5998    3.7522 C   0  0  0  0  0  0  0  0  0  0  0  0
   -2.3207    2.2043    4.3518 C   0  0  0  0  0  0  0  0  0  0  0  0
   -2.6586    1.8391    5.6159 C   0  0  0  0  0  0  0  0  0  0  0  0
   -1.8669    0.9015    6.3103 C   0  0  0  0  0  0  0  0  0  0  0  0
   -2.1811    0.5829    7.4431 O   0  0  0  0  0  0  0  0  0  0  0  0
   -0.7762    0.3508    5.7548 O   0  0  0  0  0  0  0  0  0  0  0  0
   -0.3852    0.6705    4.5026 C   0  0  0  0  0  0  0  0  0  0  0  0
    0.7447    0.0925    3.9436 C   0  0  0  0  0  0  0  0  0  0  0  0
    4.8929    2.1578    0.8418 H   0  0  0  0  0  0  0  0  0  0  0  0
    5.3232    2.1594   -0.8854 H   0  0  0  0  0  0  0  0  0  0  0  0
    3.6214    1.9887   -0.3924 H   0  0  0  0  0  0  0  0  0  0  0  0
    7.1020   -2.2533   -0.5802 H   0  0  0  0  0  0  0  0  0  0  0  0
    6.4255   -1.7774    1.0001 H   0  0  0  0  0  0  0  0  0  0  0  0
    6.1336   -0.3272   -1.6641 H   0  0  0  0  0  0  0  0  0  0  0  0
    6.9379    0.2621   -0.1911 H   0  0  0  0  0  0  0  0  0  0  0  0
    6.2017   -5.4271    0.9869 H   0  0  0  0  0  0  0  0  0  0  0  0
    6.7023   -3.6423    1.2381 H   0  0  0  0  0  0  0  0  0  0  0  0
    4.7079   -5.3191   -1.7065 H   0  0  0  0  0  0  0  0  0  0  0  0
    4.1852   -5.9040   -0.1088 H   0  0  0  0  0  0  0  0  0  0  0  0
    3.2798   -4.6042   -0.9206 H   0  0  0  0  0  0  0  0  0  0  0  0
    3.2053   -2.0302    2.5166 H   0  0  0  0  0  0  0  0  0  0  0  0
    4.1620   -3.4372    1.9935 H   0  0  0  0  0  0  0  0  0  0  0  0
    4.9649   -1.8775    2.2954 H   0  0  0  0  0  0  0  0  0  0  0  0
    2.4736   -3.5959    0.1559 H   0  0  0  0  0  0  0  0  0  0  0  0
    1.6894   -2.0418    0.5276 H   0  0  0  0  0  0  0  0  0  0  0  0
    2.4594   -1.1779   -1.7044 H   0  0  0  0  0  0  0  0  0  0  0  0
    3.0948   -2.7993   -2.0723 H   0  0  0  0  0  0  0  0  0  0  0  0
    1.7567    0.0151    0.1064 H   0  0  0  0  0  0  0  0  0  0  0  0
    2.7543    1.3384    0.7559 H   0  0  0  0  0  0  0  0  0  0  0  0
    0.6965    1.6132    0.9167 H   0  0  0  0  0  0  0  0  0  0  0  0
   -1.2920    2.6545    1.8805 H   0  0  0  0  0  0  0  0  0  0  0  0
   -2.9148    2.9206    3.8038 H   0  0  0  0  0  0  0  0  0  0  0  0
   -3.5311    2.2662    6.0878 H   0  0  0  0  0  0  0  0  0  0  0  0
    1.3239   -0.6222    4.5093 H   0  0  0  0  0  0  0  0  0  0  0  0
    0.5993   -2.5343   -3.2444 O   0  5  0  0  0  0  0  0  0  0  0  0
  1  2  1  0  0  0  0
  1 30  1  0  0  0  0
  1 31  1  0  0  0  0
  1 32  1  0  0  0  0
  2  8  1  0  0  0  0
  2  3  2  0  0  0  0
  3  4  1  0  0  0  0
  3 17  1  0  0  0  0
  4  5  1  0  0  0  0
  4 12  1  0  0  0  0
  4 13  1  0  0  0  0
  5  6  1  0  0  0  0
  5  7  1  0  0  0  0
  5  9  1  0  0  0  0
  7  8  1  0  0  0  0
  7 33  1  0  0  0  0
  7 34  1  0  0  0  0
  8 35  1  0  0  0  0
  8 36  1  0  0  0  0
  9 10  2  0  0  0  0
  9 11  1  0  0  0  0
 10 37  1  0  0  0  0
 10 38  1  0  0  0  0
 11 39  1  0  0  0  0
 11 40  1  0  0  0  0
 11 41  1  0  0  0  0
 12 42  1  0  0  0  0
 12 43  1  0  0  0  0
 12 44  1  0  0  0  0
 13 14  1  0  0  0  0
 13 45  1  0  0  0  0
 13 46  1  0  0  0  0
 14 15  1  0  0  0  0
 14 47  1  0  0  0  0
 14 48  1  0  0  0  0
 15 16  2  0  0  0  0
 15 56  1  0  0  0  0
 17 18  1  0  0  0  0
 17 49  1  0  0  0  0
 17 50  1  0  0  0  0
 18 19  1  0  0  0  0
 19 29  2  0  0  0  0
 19 20  1  0  0  0  0
 20 21  2  0  0  0  0
 20 51  1  0  0  0  0
 21 22  1  0  0  0  0
 21 52  1  0  0  0  0
 22 28  2  0  0  0  0
 22 23  1  0  0  0  0
 23 24  2  0  0  0  0
 23 53  1  0  0  0  0
 24 25  1  0  0  0  0
 24 54  1  0  0  0  0
 25 26  2  0  0  0  0
 25 27  1  0  0  0  0
 27 28  1  0  0  0  0
 28 29  1  0  0  0  0
 29 55  1  0  0  0  0
M  CHG  1  56  -1
M  END
$$$$
ZINC02117636
  -OEChem-08230709463D

 58 60  0     1  0  0  0  0  0999 V2000
    3.0203    5.7227   -2.5446 C   0  0  0  0  0  0  0  0  0  0  0  0
    1.9487    6.1704   -1.5485 C   0  0  2  0  0  0  0  0  0  0  0  0
    1.0110    5.6625   -1.7741 H   0  0  0  0  0  0  0  0  0  0  0  0
    1.7482    7.6825   -1.6630 C   0  0  0  0  0  0  0  0  0  0  0  0
    3.0873    8.3921   -1.4368 C   0  0  0  0  0  0  0  0  0  0  0  0
    3.6546    7.9372   -0.1104 C   0  0  0  0  0  0  0  0  0  0  0  0
    4.0480    8.8077    0.7860 C   0  0  0  0  0  0  0  0  0  0  0  0
    4.8504   10.0121    0.3655 C   0  0  0  0  0  0  0  0  0  0  0  0
    3.6982    8.6048    2.2378 C   0  0  0  0  0  0  0  0  0  0  0  0
    3.7556    6.4513    0.1547 C   0  0  2  0  0  0  0  0  0  0  0  0
    4.5089    6.0130   -0.4999 H   0  0  0  0  0  0  0  0  0  0  0  0
    2.3923    5.8121   -0.1292 C   0  0  1  0  0  0  0  0  0  0  0  0
    1.3638    6.3365    0.8748 C   0  0  0  0  0  0  0  0  0  0  0  0
    2.5043    4.2918    0.0019 C   0  0  0  0  0  0  0  0  0  0  0  0
    1.2327    3.6959   -0.2629 O   0  0  0  0  0  0  0  0  0  0  0  0
    1.1588    2.3426   -0.1880 C   0  0  0  0  0  0  0  0  0  0  0  0
    2.2961    1.6052    0.1364 C   0  0  0  0  0  0  0  0  0  0  0  0
    2.2382    0.2440    0.2148 C   0  0  0  0  0  0  0  0  0  0  0  0
    1.0286   -0.4160   -0.0311 C   0  0  0  0  0  0  0  0  0  0  0  0
    0.9367   -1.8754    0.0463 C   0  0  0  0  0  0  0  0  0  0  0  0
   -0.2656   -2.4568   -0.2028 C   0  0  0  0  0  0  0  0  0  0  0  0
   -1.3793   -1.6544   -0.5251 C   0  0  0  0  0  0  0  0  0  0  0  0
   -2.4515   -2.1885   -0.7457 O   0  0  0  0  0  0  0  0  0  0  0  0
   -1.2884   -0.3171   -0.5940 O   0  0  0  0  0  0  0  0  0  0  0  0
   -0.1233    0.3233   -0.3582 C   0  0  0  0  0  0  0  0  0  0  0  0
   -0.0465    1.7058   -0.4340 C   0  0  0  0  0  0  0  0  0  0  0  0
    4.1417    6.2110    1.6155 C   0  0  0  0  0  0  0  0  0  0  0  0
    5.5871    6.6589    1.8414 C   0  0  0  0  0  0  0  0  0  0  0  0
    5.9950    6.3445    3.2577 C   0  0  0  0  0  0  0  0  0  0  0  0
    5.2101    5.8164    4.0093 O   0  0  0  0  0  0  0  0  0  0  0  0
    3.1595    4.6443   -2.4682 H   0  0  0  0  0  0  0  0  0  0  0  0
    2.7051    5.9776   -3.5564 H   0  0  0  0  0  0  0  0  0  0  0  0
    3.9598    6.2271   -2.3187 H   0  0  0  0  0  0  0  0  0  0  0  0
    1.0307    8.0120   -0.9115 H   0  0  0  0  0  0  0  0  0  0  0  0
    1.3714    7.9253   -2.6566 H   0  0  0  0  0  0  0  0  0  0  0  0
    2.9314    9.4707   -1.4177 H   0  0  0  0  0  0  0  0  0  0  0  0
    3.7788    8.1335   -2.2387 H   0  0  0  0  0  0  0  0  0  0  0  0
    4.1747   10.8047    0.0443 H   0  0  0  0  0  0  0  0  0  0  0  0
    5.4477   10.3626    1.2072 H   0  0  0  0  0  0  0  0  0  0  0  0
    5.5091    9.7399   -0.4591 H   0  0  0  0  0  0  0  0  0  0  0  0
    4.4686    8.0000    2.7161 H   0  0  0  0  0  0  0  0  0  0  0  0
    3.6352    9.5727    2.7350 H   0  0  0  0  0  0  0  0  0  0  0  0
    2.7376    8.0950    2.3122 H   0  0  0  0  0  0  0  0  0  0  0  0
    1.6806    6.0815    1.8861 H   0  0  0  0  0  0  0  0  0  0  0  0
    1.2842    7.4195    0.7813 H   0  0  0  0  0  0  0  0  0  0  0  0
    0.3940    5.8820    0.6724 H   0  0  0  0  0  0  0  0  0  0  0  0
    2.8216    4.0368    1.0130 H   0  0  0  0  0  0  0  0  0  0  0  0
    3.2367    3.9184   -0.7138 H   0  0  0  0  0  0  0  0  0  0  0  0
    3.2294    2.1143    0.3266 H   0  0  0  0  0  0  0  0  0  0  0  0
    3.1230   -0.3222    0.4656 H   0  0  0  0  0  0  0  0  0  0  0  0
    1.8012   -2.4733    0.2944 H   0  0  0  0  0  0  0  0  0  0  0  0
   -0.3679   -3.5309   -0.1545 H   0  0  0  0  0  0  0  0  0  0  0  0
   -0.9225    2.2839   -0.6885 H   0  0  0  0  0  0  0  0  0  0  0  0
    3.4786    6.7821    2.2653 H   0  0  0  0  0  0  0  0  0  0  0  0
    4.0501    5.1495    1.8456 H   0  0  0  0  0  0  0  0  0  0  0  0
    6.2433    6.1318    1.1488 H   0  0  0  0  0  0  0  0  0  0  0  0
    5.6657    7.7326    1.6705 H   0  0  0  0  0  0  0  0  0  0  0  0
    7.2302    6.6513    3.6842 O   0  5  0  0  0  0  0  0  0  0  0  0
  1  2  1  0  0  0  0
  1 31  1  0  0  0  0
  1 32  1  0  0  0  0
  1 33  1  0  0  0  0
  2  3  1  0  0  0  0
  2 12  1  0  0  0  0
  2  4  1  0  0  0  0
  4  5  1  0  0  0  0
  4 34  1  0  0  0  0
  4 35  1  0  0  0  0
  5  6  1  0  0  0  0
  5 36  1  0  0  0  0
  5 37  1  0  0  0  0
  6  7  2  0  0  0  0
  6 10  1  0  0  0  0
  7  8  1  0  0  0  0
  7  9  1  0  0  0  0
  8 38  1  0  0  0  0
  8 39  1  0  0  0  0
  8 40  1  0  0  0  0
  9 41  1  0  0  0  0
  9 42  1  0  0  0  0
  9 43  1  0  0  0  0
 10 11  1  0  0  0  0
 10 12  1  0  0  0  0
 10 27  1  0  0  0  0
 12 13  1  0  0  0  0
 12 14  1  0  0  0  0
 13 44  1  0  0  0  0
 13 45  1  0  0  0  0
 13 46  1  0  0  0  0
 14 15  1  0  0  0  0
 14 47  1  0  0  0  0
 14 48  1  0  0  0  0
 15 16  1  0  0  0  0
 16 26  2  0  0  0  0
 16 17  1  0  0  0  0
 17 18  2  0  0  0  0
 17 49  1  0  0  0  0
 18 19  1  0  0  0  0
 18 50  1  0  0  0  0
 19 25  2  0  0  0  0
 19 20  1  0  0  0  0
 20 21  2  0  0  0  0
 20 51  1  0  0  0  0
 21 22  1  0  0  0  0
 21 52  1  0  0  0  0
 22 23  2  0  0  0  0
 22 24  1  0  0  0  0
 24 25  1  0  0  0  0
 25 26  1  0  0  0  0
 26 53  1  0  0  0  0
 27 28  1  0  0  0  0
 27 54  1  0  0  0  0
 27 55  1  0  0  0  0
 28 29  1  0  0  0  0
 28 56  1  0  0  0  0
 28 57  1  0  0  0  0
 29 30  2  0  0  0  0
 29 58  1  0  0  0  0
M  CHG  1  58  -1
M  END
$$$$
ZINC02124280
  -OEChem-08230709463D

 55 56  0     0  0  0  0  0  0999 V2000
  -10.6793    6.4739    1.0650 C   0  0  0  0  0  0  0  0  0  0  0  0
   -9.7061    7.4490    0.3995 C   0  0  0  0  0  0  0  0  0  0  0  0
   -9.7746    8.8023    1.1098 C   0  0  0  0  0  0  0  0  0  0  0  0
   -8.2834    6.8943    0.4950 C   0  0  0  0  0  0  0  0  0  0  0  0
   -8.1901    5.6885   -0.2662 O   0  0  0  0  0  0  0  0  0  0  0  0
   -6.9852    5.0644   -0.2867 C   0  0  0  0  0  0  0  0  0  0  0  0
   -6.8266    3.8870   -1.0082 C   0  0  0  0  0  0  0  0  0  0  0  0
   -5.6057    3.2507   -1.0315 C   0  0  0  0  0  0  0  0  0  0  0  0
   -4.5252    3.7903   -0.3284 C   0  0  0  0  0  0  0  0  0  0  0  0
   -4.6901    4.9714    0.4000 C   0  0  0  0  0  0  0  0  0  0  0  0
   -5.9128    5.6046    0.4135 C   0  0  0  0  0  0  0  0  0  0  0  0
   -3.2150    3.1114   -0.3503 C   0  0  0  0  0  0  0  0  0  0  0  0
   -3.0746    2.0809   -0.9806 O   0  0  0  0  0  0  0  0  0  0  0  0
   -2.1742    3.6333    0.3284 N   0  0  0  0  0  0  0  0  0  0  0  0
   -0.9078    3.0460    0.2277 C   0  0  0  0  0  0  0  0  0  0  0  0
    0.1490    3.6002    0.8693 C   0  0  0  0  0  0  0  0  0  0  0  0
    1.4441    2.9062    0.8871 C   0  0  0  0  0  0  0  0  0  0  0  0
    1.4913    1.5089    0.9574 C   0  0  0  0  0  0  0  0  0  0  0  0
    2.7074    0.8634    0.9689 C   0  0  0  0  0  0  0  0  0  0  0  0
    3.8869    1.5971    0.9212 C   0  0  0  0  0  0  0  0  0  0  0  0
    3.8459    2.9849    0.8567 C   0  0  0  0  0  0  0  0  0  0  0  0
    2.6351    3.6402    0.8398 C   0  0  0  0  0  0  0  0  0  0  0  0
    5.0836    0.9558    0.9381 O   0  0  0  0  0  0  0  0  0  0  0  0
    6.2560    1.7673    0.8420 C   0  0  0  0  0  0  0  0  0  0  0  0
    6.6199    2.3037    2.2280 C   0  0  0  0  0  0  0  0  0  0  0  0
    7.4144    0.9277    0.2998 C   0  0  0  0  0  0  0  0  0  0  0  0
   -0.7235    1.8337   -0.5774 C   0  0  0  0  0  0  0  0  0  0  0  0
   -1.0598    0.7524   -0.1341 O   0  0  0  0  0  0  0  0  0  0  0  0
  -10.4079    6.3482    2.1132 H   0  0  0  0  0  0  0  0  0  0  0  0
  -11.6929    6.8690    0.9970 H   0  0  0  0  0  0  0  0  0  0  0  0
  -10.6305    5.5097    0.5590 H   0  0  0  0  0  0  0  0  0  0  0  0
   -9.9775    7.5746   -0.6487 H   0  0  0  0  0  0  0  0  0  0  0  0
   -9.0812    9.4970    0.6357 H   0  0  0  0  0  0  0  0  0  0  0  0
  -10.7881    9.1975    1.0418 H   0  0  0  0  0  0  0  0  0  0  0  0
   -9.5031    8.6767    2.1580 H   0  0  0  0  0  0  0  0  0  0  0  0
   -8.0441    6.6852    1.5376 H   0  0  0  0  0  0  0  0  0  0  0  0
   -7.5802    7.6280    0.1009 H   0  0  0  0  0  0  0  0  0  0  0  0
   -7.6622    3.4705   -1.5510 H   0  0  0  0  0  0  0  0  0  0  0  0
   -5.4832    2.3361   -1.5926 H   0  0  0  0  0  0  0  0  0  0  0  0
   -3.8587    5.3891    0.9483 H   0  0  0  0  0  0  0  0  0  0  0  0
   -6.0400    6.5198    0.9727 H   0  0  0  0  0  0  0  0  0  0  0  0
   -2.3027    4.4161    0.8867 H   0  0  0  0  0  0  0  0  0  0  0  0
    0.0396    4.5521    1.3676 H   0  0  0  0  0  0  0  0  0  0  0  0
    0.5754    0.9380    0.9986 H   0  0  0  0  0  0  0  0  0  0  0  0
    2.7449   -0.2148    1.0189 H   0  0  0  0  0  0  0  0  0  0  0  0
    4.7654    3.5502    0.8202 H   0  0  0  0  0  0  0  0  0  0  0  0
    2.6043    4.7187    0.7904 H   0  0  0  0  0  0  0  0  0  0  0  0
    6.0656    2.6023    0.1678 H   0  0  0  0  0  0  0  0  0  0  0  0
    5.7946    2.9018    2.6143 H   0  0  0  0  0  0  0  0  0  0  0  0
    6.8103    1.4687    2.9022 H   0  0  0  0  0  0  0  0  0  0  0  0
    7.5141    2.9226    2.1547 H   0  0  0  0  0  0  0  0  0  0  0  0
    7.1551    0.5455   -0.6876 H   0  0  0  0  0  0  0  0  0  0  0  0
    8.3086    1.5467    0.2265 H   0  0  0  0  0  0  0  0  0  0  0  0
    7.6047    0.0927    0.9740 H   0  0  0  0  0  0  0  0  0  0  0  0
   -0.1811    1.9184   -1.8096 O   0  5  0  0  0  0  0  0  0  0  0  0
  1  2  1  0  0  0  0
  1 29  1  0  0  0  0
  1 30  1  0  0  0  0
  1 31  1  0  0  0  0
  2  3  1  0  0  0  0
  2  4  1  0  0  0  0
  2 32  1  0  0  0  0
  3 33  1  0  0  0  0
  3 34  1  0  0  0  0
  3 35  1  0  0  0  0
  4  5  1  0  0  0  0
  4 36  1  0  0  0  0
  4 37  1  0  0  0  0
  5  6  1  0  0  0  0
  6 11  2  0  0  0  0
  6  7  1  0  0  0  0
  7  8  2  0  0  0  0
  7 38  1  0  0  0  0
  8  9  1  0  0  0  0
  8 39  1  0  0  0  0
  9 10  2  0  0  0  0
  9 12  1  0  0  0  0
 10 11  1  0  0  0  0
 10 40  1  0  0  0  0
 11 41  1  0  0  0  0
 12 13  2  0  0  0  0
 12 14  1  0  0  0  0
 14 15  1  0  0  0  0
 14 42  1  0  0  0  0
 15 16  2  0  0  0  0
 15 27  1  0  0  0  0
 16 17  1  0  0  0  0
 16 43  1  0  0  0  0
 17 22  2  0  0  0  0
 17 18  1  0  0  0  0
 18 19  2  0  0  0  0
 18 44  1  0  0  0  0
 19 20  1  0  0  0  0
 19 45  1  0  0  0  0
 20 21  2  0  0  0  0
 20 23  1  0  0  0  0
 21 22  1  0  0  0  0
 21 46  1  0  0  0  0
 22 47  1  0  0  0  0
 23 24  1  0  0  0  0
 24 25  1  0  0  0  0
 24 26  1  0  0  0  0
 24 48  1  0  0  0  0
 25 49  1  0  0  0  0
 25 50  1  0  0  0  0
 25 51  1  0  0  0  0
 26 52  1  0  0  0  0
 26 53  1  0  0  0  0
 26 54  1  0  0  0  0
 27 28  2  0  0  0  0
 27 55  1  0  0  0  0
M  CHG  1  55  -1
M  END
$$$$
ZINC02134106
  -OEChem-08230709463D

 60 62  0     1  0  0  0  0  0999 V2000
    0.4824    0.2078   -2.3602 C   0  0  0  0  0  0  0  0  0  0  0  0
   -0.3698    0.8660   -1.2733 C   0  0  1  0  0  0  0  0  0  0  0  0
   -0.0842    2.3679   -1.2555 C   0  0  0  0  0  0  0  0  0  0  0  0
   -0.4096    2.9607   -2.6287 C   0  0  0  0  0  0  0  0  0  0  0  0
   -1.8847    2.7202   -2.9544 C   0  0  0  0  0  0  0  0  0  0  0  0
   -2.1720    1.2172   -2.9607 C   0  0  1  0  0  0  0  0  0  0  0  0
   -1.8550    0.6373   -1.5778 C   0  0  2  0  0  0  0  0  0  0  0  0
   -2.0764   -0.4300   -1.5694 H   0  0  0  0  0  0  0  0  0  0  0  0
   -2.7158    1.3485   -0.5309 C   0  0  0  0  0  0  0  0  0  0  0  0
   -2.4541    0.7367    0.8488 C   0  0  0  0  0  0  0  0  0  0  0  0
   -0.9686    0.8030    1.1277 C   0  0  0  0  0  0  0  0  0  0  0  0
   -0.5153    1.3224    2.2416 C   0  0  0  0  0  0  0  0  0  0  0  0
   -0.0212    0.2534    0.0845 C   0  0  2  0  0  0  0  0  0  0  0  0
   -0.1232   -0.8306    0.0333 H   0  0  0  0  0  0  0  0  0  0  0  0
    1.4178    0.6161    0.4566 C   0  0  0  0  0  0  0  0  0  0  0  0
    1.8631   -0.2269    1.6533 C   0  0  0  0  0  0  0  0  0  0  0  0
    3.3145    0.0496    1.9502 C   0  0  0  0  0  0  0  0  0  0  0  0
    4.4185   -0.6904    1.5013 C   0  0  0  0  0  0  0  0  0  0  0  0
    5.5267   -0.0957    1.9968 C   0  0  0  0  0  0  0  0  0  0  0  0
    5.1627    0.9635    2.7325 O   0  0  0  0  0  0  0  0  0  0  0  0
    3.8180    1.0768    2.7221 C   0  0  0  0  0  0  0  0  0  0  0  0
    3.0596    2.0711    3.3847 C   0  0  0  0  0  0  0  0  0  0  0  0
    3.6864    3.0287    4.1149 C   0  0  0  0  0  0  0  0  0  0  0  0
    2.9292    4.0213    4.7764 C   0  0  0  0  0  0  0  0  0  0  0  0
    1.7151    4.0180    4.6917 O   0  0  0  0  0  0  0  0  0  0  0  0
   -3.6477    0.9804   -3.2881 C   0  0  0  0  0  0  0  0  0  0  0  0
   -1.3117    0.5435   -3.9984 C   0  0  0  0  0  0  0  0  0  0  0  0
   -0.6429    1.2089   -4.7533 O   0  0  0  0  0  0  0  0  0  0  0  0
   -1.2884   -0.7959   -4.0842 O   0  0  0  0  0  0  0  0  0  0  0  0
   -0.4371   -1.3762   -5.1073 C   0  0  0  0  0  0  0  0  0  0  0  0
    0.0613   -0.7653   -2.6126 H   0  0  0  0  0  0  0  0  0  0  0  0
    0.4920    0.8408   -3.2475 H   0  0  0  0  0  0  0  0  0  0  0  0
    1.5013    0.0791   -1.9948 H   0  0  0  0  0  0  0  0  0  0  0  0
    0.9689    2.5332   -1.0280 H   0  0  0  0  0  0  0  0  0  0  0  0
   -0.7005    2.8492   -0.4961 H   0  0  0  0  0  0  0  0  0  0  0  0
    0.2119    2.4837   -3.3865 H   0  0  0  0  0  0  0  0  0  0  0  0
   -0.2103    4.0322   -2.6176 H   0  0  0  0  0  0  0  0  0  0  0  0
   -2.1122    3.1371   -3.9354 H   0  0  0  0  0  0  0  0  0  0  0  0
   -2.5061    3.2052   -2.2016 H   0  0  0  0  0  0  0  0  0  0  0  0
   -3.7690    1.2313   -0.7862 H   0  0  0  0  0  0  0  0  0  0  0  0
   -2.4625    2.4085   -0.5120 H   0  0  0  0  0  0  0  0  0  0  0  0
   -2.7824   -0.3027    0.8570 H   0  0  0  0  0  0  0  0  0  0  0  0
   -2.9950    1.3010    1.6085 H   0  0  0  0  0  0  0  0  0  0  0  0
    0.5464    1.4662    2.3776 H   0  0  0  0  0  0  0  0  0  0  0  0
   -1.2033    1.6068    3.0240 H   0  0  0  0  0  0  0  0  0  0  0  0
    2.0733    0.4180   -0.3914 H   0  0  0  0  0  0  0  0  0  0  0  0
    1.4702    1.6732    0.7172 H   0  0  0  0  0  0  0  0  0  0  0  0
    1.2589    0.0298    2.5235 H   0  0  0  0  0  0  0  0  0  0  0  0
    1.7347   -1.2840    1.4209 H   0  0  0  0  0  0  0  0  0  0  0  0
    4.3887   -1.5694    0.8746 H   0  0  0  0  0  0  0  0  0  0  0  0
    6.5420   -0.4242    1.8303 H   0  0  0  0  0  0  0  0  0  0  0  0
    1.9822    2.0681    3.3095 H   0  0  0  0  0  0  0  0  0  0  0  0
    4.7637    3.0317    4.1901 H   0  0  0  0  0  0  0  0  0  0  0  0
   -4.2693    1.4696   -2.5381 H   0  0  0  0  0  0  0  0  0  0  0  0
   -3.8724    1.3931   -4.2716 H   0  0  0  0  0  0  0  0  0  0  0  0
   -3.8527   -0.0901   -3.2878 H   0  0  0  0  0  0  0  0  0  0  0  0
   -0.5111   -2.4630   -5.0681 H   0  0  0  0  0  0  0  0  0  0  0  0
   -0.7574   -1.0254   -6.0884 H   0  0  0  0  0  0  0  0  0  0  0  0
    0.5961   -1.0758   -4.9336 H   0  0  0  0  0  0  0  0  0  0  0  0
    3.5525    4.9736    5.5026 O   0  5  0  0  0  0  0  0  0  0  0  0
  1  2  1  0  0  0  0
  1 31  1  0  0  0  0
  1 32  1  0  0  0  0
  1 33  1  0  0  0  0
  2  7  1  0  0  0  0
  2 13  1  0  0  0  0
  2  3  1  0  0  0  0
  3  4  1  0  0  0  0
  3 34  1  0  0  0  0
  3 35  1  0  0  0  0
  4  5  1  0  0  0  0
  4 36  1  0  0  0  0
  4 37  1  0  0  0  0
  5  6  1  0  0  0  0
  5 38  1  0  0  0  0
  5 39  1  0  0  0  0
  6  7  1  0  0  0  0
  6 26  1  0  0  0  0
  6 27  1  0  0  0  0
  7  8  1  0  0  0  0
  7  9  1  0  0  0  0
  9 10  1  0  0  0  0
  9 40  1  0  0  0  0
  9 41  1  0  0  0  0
 10 11  1  0  0  0  0
 10 42  1  0  0  0  0
 10 43  1  0  0  0  0
 11 12  2  0  0  0  0
 11 13  1  0  0  0  0
 12 44  1  0  0  0  0
 12 45  1  0  0  0  0
 13 14  1  0  0  0  0
 13 15  1  0  0  0  0
 15 16  1  0  0  0  0
 15 46  1  0  0  0  0
 15 47  1  0  0  0  0
 16 17  1  0  0  0  0
 16 48  1  0  0  0  0
 16 49  1  0  0  0  0
 17 21  2  0  0  0  0
 17 18  1  0  0  0  0
 18 19  2  0  0  0  0
 18 50  1  0  0  0  0
 19 20  1  0  0  0  0
 19 51  1  0  0  0  0
 20 21  1  0  0  0  0
 21 22  1  0  0  0  0
 22 23  2  0  0  0  0
 22 52  1  0  0  0  0
 23 24  1  0  0  0  0
 23 53  1  0  0  0  0
 24 25  2  0  0  0  0
 24 60  1  0  0  0  0
 26 54  1  0  0  0  0
 26 55  1  0  0  0  0
 26 56  1  0  0  0  0
 27 28  2  0  0  0  0
 27 29  1  0  0  0  0
 29 30  1  0  0  0  0
 30 57  1  0  0  0  0
 30 58  1  0  0  0  0
 30 59  1  0  0  0  0
M  CHG  1  60  -1
M  END
$$$$
ZINC02134814
  -OEChem-08230709463D

 59 62  0     1  0  0  0  0  0999 V2000
    1.4616   -0.9641    1.7410 C   0  0  0  0  0  0  0  0  0  0  0  0
    1.3250    0.4661    2.2726 C   0  0  2  0  0  0  0  0  0  0  0  0
   -0.0771    0.7137    2.7674 C   0  0  0  0  0  0  0  0  0  0  0  0
   -0.9378    1.3755    1.6756 C   0  0  0  0  0  0  0  0  0  0  0  0
   -0.4609    0.9401    0.2991 C   0  0  2  0  0  0  0  0  0  0  0  0
   -0.3679   -0.1512    0.3029 H   0  0  0  0  0  0  0  0  0  0  0  0
    0.9149    1.5310    0.0061 C   0  0  1  0  0  0  0  0  0  0  0  0
    0.7726    2.5900   -0.2891 H   0  0  0  0  0  0  0  0  0  0  0  0
    1.7665    1.5194    1.2375 C   0  0  2  0  0  0  0  0  0  0  0  0
    1.7075    2.5245    1.7083 H   0  0  0  0  0  0  0  0  0  0  0  0
    3.2556    1.1891    1.0583 C   0  0  0  0  0  0  0  0  0  0  0  0
    3.7164    0.8436    2.5009 C   0  0  0  0  0  0  0  0  0  0  0  0
    2.4280    0.6444    3.3381 C   0  0  2  0  0  0  0  0  0  0  0  0
    2.5286   -0.6141    4.1953 C   0  0  0  0  0  0  0  0  0  0  0  0
    2.1642    1.7922    4.1369 O   0  0  0  0  0  0  0  0  0  0  0  0
    1.5058    0.8036   -1.1970 C   0  0  0  0  0  0  0  0  0  0  0  0
    0.6732    1.1919   -2.4200 C   0  0  0  0  0  0  0  0  0  0  0  0
   -0.8043    1.0386   -2.1702 C   0  0  0  0  0  0  0  0  0  0  0  0
   -1.5595    0.7201   -3.2234 C   0  0  0  0  0  0  0  0  0  0  0  0
   -3.0077    0.5182   -3.0810 C   0  0  0  0  0  0  0  0  0  0  0  0
   -3.5393    0.3543   -1.8693 C   0  0  0  0  0  0  0  0  0  0  0  0
   -2.6637    0.3432   -0.6485 C   0  0  0  0  0  0  0  0  0  0  0  0
   -1.4384    1.2420   -0.8245 C   0  0  1  0  0  0  0  0  0  0  0  0
   -1.8957    2.6957   -0.7244 C   0  0  0  0  0  0  0  0  0  0  0  0
   -3.8246    0.4918   -4.2139 N   0  0  0  0  0  0  0  0  0  0  0  0
   -5.2204    0.2972   -4.0760 O   0  0  0  0  0  0  0  0  0  0  0  0
   -5.9318    0.2924   -5.3153 C   0  0  0  0  0  0  0  0  0  0  0  0
   -7.4000    0.0790   -5.0508 C   0  0  0  0  0  0  0  0  0  0  0  0
   -7.7965   -0.0551   -3.9174 O   0  0  0  0  0  0  0  0  0  0  0  0
    2.5163   -1.1996    1.5985 H   0  0  0  0  0  0  0  0  0  0  0  0
    1.0273   -1.6611    2.4576 H   0  0  0  0  0  0  0  0  0  0  0  0
    0.9384   -1.0491    0.7885 H   0  0  0  0  0  0  0  0  0  0  0  0
   -0.5400   -0.2371    3.0618 H   0  0  0  0  0  0  0  0  0  0  0  0
   -0.0562    1.3659    3.6477 H   0  0  0  0  0  0  0  0  0  0  0  0
   -0.8544    2.4617    1.7722 H   0  0  0  0  0  0  0  0  0  0  0  0
   -1.9822    1.0873    1.8167 H   0  0  0  0  0  0  0  0  0  0  0  0
    3.4023    0.3472    0.3879 H   0  0  0  0  0  0  0  0  0  0  0  0
    3.7964    2.0631    0.6877 H   0  0  0  0  0  0  0  0  0  0  0  0
    4.3061    1.6624    2.9112 H   0  0  0  0  0  0  0  0  0  0  0  0
    4.3042   -0.0738    2.4945 H   0  0  0  0  0  0  0  0  0  0  0  0
    2.7745   -1.4664    3.5619 H   0  0  0  0  0  0  0  0  0  0  0  0
    3.3087   -0.4816    4.9450 H   0  0  0  0  0  0  0  0  0  0  0  0
    1.5747   -0.7931    4.6913 H   0  0  0  0  0  0  0  0  0  0  0  0
    2.8253    1.9537    4.8239 H   0  0  0  0  0  0  0  0  0  0  0  0
    2.5404    1.1127   -1.3524 H   0  0  0  0  0  0  0  0  0  0  0  0
    1.4593   -0.2745   -1.0523 H   0  0  0  0  0  0  0  0  0  0  0  0
    0.8813    2.2329   -2.6726 H   0  0  0  0  0  0  0  0  0  0  0  0
    0.9618    0.5605   -3.2605 H   0  0  0  0  0  0  0  0  0  0  0  0
   -1.0972    0.6075   -4.1957 H   0  0  0  0  0  0  0  0  0  0  0  0
   -4.6085    0.2211   -1.7664 H   0  0  0  0  0  0  0  0  0  0  0  0
   -3.2446    0.6919    0.2090 H   0  0  0  0  0  0  0  0  0  0  0  0
   -2.3323   -0.6790   -0.4529 H   0  0  0  0  0  0  0  0  0  0  0  0
   -1.0317    3.3549   -0.8075 H   0  0  0  0  0  0  0  0  0  0  0  0
   -2.5969    2.9123   -1.5304 H   0  0  0  0  0  0  0  0  0  0  0  0
   -2.3850    2.8573    0.2361 H   0  0  0  0  0  0  0  0  0  0  0  0
   -3.4357    0.6068   -5.0950 H   0  0  0  0  0  0  0  0  0  0  0  0
   -5.7886    1.2477   -5.8201 H   0  0  0  0  0  0  0  0  0  0  0  0
   -5.5557   -0.5124   -5.9470 H   0  0  0  0  0  0  0  0  0  0  0  0
   -8.2673    0.0381   -6.0745 O   0  5  0  0  0  0  0  0  0  0  0  0
  1  2  1  0  0  0  0
  1 30  1  0  0  0  0
  1 31  1  0  0  0  0
  1 32  1  0  0  0  0
  2  9  1  0  0  0  0
  2 13  1  0  0  0  0
  2  3  1  0  0  0  0
  3  4  1  0  0  0  0
  3 33  1  0  0  0  0
  3 34  1  0  0  0  0
  4  5  1  0  0  0  0
  4 35  1  0  0  0  0
  4 36  1  0  0  0  0
  5  6  1  0  0  0  0
  5 23  1  0  0  0  0
  5  7  1  0  0  0  0
  7  8  1  0  0  0  0
  7  9  1  0  0  0  0
  7 16  1  0  0  0  0
  9 10  1  0  0  0  0
  9 11  1  0  0  0  0
 11 12  1  0  0  0  0
 11 37  1  0  0  0  0
 11 38  1  0  0  0  0
 12 13  1  0  0  0  0
 12 39  1  0  0  0  0
 12 40  1  0  0  0  0
 13 14  1  0  0  0  0
 13 15  1  0  0  0  0
 14 41  1  0  0  0  0
 14 42  1  0  0  0  0
 14 43  1  0  0  0  0
 15 44  1  0  0  0  0
 16 17  1  0  0  0  0
 16 45  1  0  0  0  0
 16 46  1  0  0  0  0
 17 18  1  0  0  0  0
 17 47  1  0  0  0  0
 17 48  1  0  0  0  0
 18 23  1  0  0  0  0
 18 19  2  0  0  0  0
 19 20  1  0  0  0  0
 19 49  1  0  0  0  0
 20 21  2  0  0  0  0
 20 25  1  0  0  0  0
 21 22  1  0  0  0  0
 21 50  1  0  0  0  0
 22 23  1  0  0  0  0
 22 51  1  0  0  0  0
 22 52  1  0  0  0  0
 23 24  1  0  0  0  0
 24 53  1  0  0  0  0
 24 54  1  0  0  0  0
 24 55  1  0  0  0  0
 25 26  1  0  0  0  0
 25 56  1  0  0  0  0
 26 27  1  0  0  0  0
 27 28  1  0  0  0  0
 27 57  1  0  0  0  0
 27 58  1  0  0  0  0
 28 29  2  0  0  0  0
 28 59  1  0  0  0  0
M  CHG  1  59  -1
M  END
$$$$
ZINC02139275
  -OEChem-08230709463D

 58 61  0     1  0  0  0  0  0999 V2000
    1.8148    2.4017    3.0652 C   0  0  0  0  0  0  0  0  0  0  0  0
    1.1339    3.1446    1.9124 C   0  0  2  0  0  0  0  0  0  0  0  0
   -0.3600    2.8575    1.8489 C   0  0  0  0  0  0  0  0  0  0  0  0
   -0.6834    1.4680    1.3313 C   0  0  0  0  0  0  0  0  0  0  0  0
   -0.0133    1.1318    0.0083 C   0  0  2  0  0  0  0  0  0  0  0  0
    0.0021   -0.0041    0.0020 H   0  0  0  0  0  0  0  0  0  0  0  0
    1.4436    1.5008   -0.0037 C   0  0  2  0  0  0  0  0  0  0  0  0
    1.9282    0.7645    0.6978 H   0  0  0  0  0  0  0  0  0  0  0  0
    1.8087    2.8429    0.5617 C   0  0  1  0  0  0  0  0  0  0  0  0
    2.9014    2.8367    0.7419 H   0  0  0  0  0  0  0  0  0  0  0  0
    1.4995    4.0384   -0.3429 C   0  0  0  0  0  0  0  0  0  0  0  0
    1.1357    5.2066    0.6004 C   0  0  0  0  0  0  0  0  0  0  0  0
    1.3343    4.6791    2.0339 C   0  0  1  0  0  0  0  0  0  0  0  0
    0.3697    5.2890    2.9542 C   0  0  0  0  0  0  0  0  0  0  0  0
   -0.4027    5.7773    3.6912 C   0  0  0  0  0  0  0  0  0  0  0  0
    2.6690    4.9599    2.4701 O   0  0  0  0  0  0  0  0  0  0  0  0
    2.1180    1.2287   -1.3431 C   0  0  0  0  0  0  0  0  0  0  0  0
    1.4089    1.9628   -2.4715 C   0  0  0  0  0  0  0  0  0  0  0  0
   -0.0591    1.6381   -2.4687 C   0  0  0  0  0  0  0  0  0  0  0  0
   -0.6683    1.5118   -3.6484 C   0  0  0  0  0  0  0  0  0  0  0  0
   -2.0917    1.1474   -3.7196 C   0  0  0  0  0  0  0  0  0  0  0  0
   -2.6807    0.6003   -2.6525 C   0  0  0  0  0  0  0  0  0  0  0  0
   -1.8772    0.3415   -1.4066 C   0  0  0  0  0  0  0  0  0  0  0  0
   -0.8449    1.4678   -1.2031 C   0  0  1  0  0  0  0  0  0  0  0  0
   -1.6507    2.7470   -0.9845 C   0  0  0  0  0  0  0  0  0  0  0  0
   -2.8119    1.3352   -4.8984 N   0  0  0  0  0  0  0  0  0  0  0  0
   -4.1817    0.9808   -4.9554 O   0  0  0  0  0  0  0  0  0  0  0  0
   -4.7935    1.2270   -6.2231 C   0  0  0  0  0  0  0  0  0  0  0  0
   -6.2422    0.8153   -6.1701 C   0  0  0  0  0  0  0  0  0  0  0  0
   -6.7034    0.3579   -5.1513 O   0  0  0  0  0  0  0  0  0  0  0  0
    2.8592    2.7075    3.1279 H   0  0  0  0  0  0  0  0  0  0  0  0
    1.3093    2.6411    4.0007 H   0  0  0  0  0  0  0  0  0  0  0  0
    1.7608    1.3277    2.8875 H   0  0  0  0  0  0  0  0  0  0  0  0
   -0.7684    2.9211    2.8732 H   0  0  0  0  0  0  0  0  0  0  0  0
   -0.8632    3.6163    1.2567 H   0  0  0  0  0  0  0  0  0  0  0  0
   -1.7705    1.3482    1.2513 H   0  0  0  0  0  0  0  0  0  0  0  0
   -0.3581    0.7297    2.0865 H   0  0  0  0  0  0  0  0  0  0  0  0
    2.3901    4.3068   -0.9295 H   0  0  0  0  0  0  0  0  0  0  0  0
    0.6795    3.8325   -1.0259 H   0  0  0  0  0  0  0  0  0  0  0  0
    0.0965    5.4996    0.4509 H   0  0  0  0  0  0  0  0  0  0  0  0
    1.7933    6.0558    0.4189 H   0  0  0  0  0  0  0  0  0  0  0  0
   -1.0936    6.2141    4.3504 H   0  0  0  0  0  0  0  0  0  0  0  0
    2.8610    5.9027    2.5667 H   0  0  0  0  0  0  0  0  0  0  0  0
    3.1632    1.5536   -1.2988 H   0  0  0  0  0  0  0  0  0  0  0  0
    2.1042    0.1520   -1.5463 H   0  0  0  0  0  0  0  0  0  0  0  0
    1.5582    3.0335   -2.3842 H   0  0  0  0  0  0  0  0  0  0  0  0
    1.8355    1.6333   -3.4267 H   0  0  0  0  0  0  0  0  0  0  0  0
   -0.1125    1.6792   -4.5605 H   0  0  0  0  0  0  0  0  0  0  0  0
   -3.7297    0.3464   -2.6851 H   0  0  0  0  0  0  0  0  0  0  0  0
   -2.5406    0.3101   -0.5449 H   0  0  0  0  0  0  0  0  0  0  0  0
   -1.3516   -0.6063   -1.5036 H   0  0  0  0  0  0  0  0  0  0  0  0
   -0.9705    3.5761   -0.7896 H   0  0  0  0  0  0  0  0  0  0  0  0
   -2.2398    2.9622   -1.8760 H   0  0  0  0  0  0  0  0  0  0  0  0
   -2.3169    2.6155   -0.1319 H   0  0  0  0  0  0  0  0  0  0  0  0
   -2.3747    1.7086   -5.6796 H   0  0  0  0  0  0  0  0  0  0  0  0
   -4.7260    2.2890   -6.4590 H   0  0  0  0  0  0  0  0  0  0  0  0
   -4.2798    0.6505   -6.9925 H   0  0  0  0  0  0  0  0  0  0  0  0
   -7.0202    0.9566   -7.2548 O   0  5  0  0  0  0  0  0  0  0  0  0
  1  2  1  0  0  0  0
  1 31  1  0  0  0  0
  1 32  1  0  0  0  0
  1 33  1  0  0  0  0
  2  9  1  0  0  0  0
  2 13  1  0  0  0  0
  2  3  1  0  0  0  0
  3  4  1  0  0  0  0
  3 34  1  0  0  0  0
  3 35  1  0  0  0  0
  4  5  1  0  0  0  0
  4 36  1  0  0  0  0
  4 37  1  0  0  0  0
  5  6  1  0  0  0  0
  5 24  1  0  0  0  0
  5  7  1  0  0  0  0
  7  8  1  0  0  0  0
  7  9  1  0  0  0  0
  7 17  1  0  0  0  0
  9 10  1  0  0  0  0
  9 11  1  0  0  0  0
 11 12  1  0  0  0  0
 11 38  1  0  0  0  0
 11 39  1  0  0  0  0
 12 13  1  0  0  0  0
 12 40  1  0  0  0  0
 12 41  1  0  0  0  0
 13 14  1  0  0  0  0
 13 16  1  0  0  0  0
 14 15  3  0  0  0  0
 15 42  1  0  0  0  0
 16 43  1  0  0  0  0
 17 18  1  0  0  0  0
 17 44  1  0  0  0  0
 17 45  1  0  0  0  0
 18 19  1  0  0  0  0
 18 46  1  0  0  0  0
 18 47  1  0  0  0  0
 19 24  1  0  0  0  0
 19 20  2  0  0  0  0
 20 21  1  0  0  0  0
 20 48  1  0  0  0  0
 21 22  2  0  0  0  0
 21 26  1  0  0  0  0
 22 23  1  0  0  0  0
 22 49  1  0  0  0  0
 23 24  1  0  0  0  0
 23 50  1  0  0  0  0
 23 51  1  0  0  0  0
 24 25  1  0  0  0  0
 25 52  1  0  0  0  0
 25 53  1  0  0  0  0
 25 54  1  0  0  0  0
 26 27  1  0  0  0  0
 26 55  1  0  0  0  0
 27 28  1  0  0  0  0
 28 29  1  0  0  0  0
 28 56  1  0  0  0  0
 28 57  1  0  0  0  0
 29 30  2  0  0  0  0
 29 58  1  0  0  0  0
M  CHG  1  58  -1
M  END
$$$$
ZINC02148765
  -OEChem-08230709463D

 48 50  0     0  0  0  0  0  0999 V2000
    2.7823   10.4950   -2.4796 C   0  0  0  0  0  0  0  0  0  0  0  0
    2.9141    9.7454   -1.1789 C   0  0  0  0  0  0  0  0  0  0  0  0
    2.8156   10.4226    0.0222 C   0  0  0  0  0  0  0  0  0  0  0  0
    2.9360    9.7350    1.2153 C   0  0  0  0  0  0  0  0  0  0  0  0
    3.1546    8.3700    1.2073 C   0  0  0  0  0  0  0  0  0  0  0  0
    3.2523    7.6927    0.0063 C   0  0  0  0  0  0  0  0  0  0  0  0
    3.1371    8.3812   -1.1869 C   0  0  0  0  0  0  0  0  0  0  0  0
    3.4906    6.2047   -0.0024 C   0  0  0  0  0  0  0  0  0  0  0  0
    2.2356    5.5213    0.0069 O   0  0  0  0  0  0  0  0  0  0  0  0
    2.2728    4.1643    0.0007 C   0  0  0  0  0  0  0  0  0  0  0  0
    3.5015    3.5066   -0.0145 C   0  0  0  0  0  0  0  0  0  0  0  0
    3.5556    2.1431   -0.0208 C   0  0  0  0  0  0  0  0  0  0  0  0
    2.3695    1.4000   -0.0130 C   0  0  0  0  0  0  0  0  0  0  0  0
    2.3969   -0.0641   -0.0211 C   0  0  0  0  0  0  0  0  0  0  0  0
    1.2118   -0.7283   -0.0134 C   0  0  0  0  0  0  0  0  0  0  0  0
    0.0021   -0.0041    0.0020 C   0  0  0  0  0  0  0  0  0  0  0  0
   -1.0533   -0.6119    0.0092 O   0  0  0  0  0  0  0  0  0  0  0  0
   -0.0161    1.3380    0.0094 O   0  0  0  0  0  0  0  0  0  0  0  0
    1.1259    2.0584    0.0024 C   0  0  0  0  0  0  0  0  0  0  0  0
    1.0893    3.4447    0.0091 C   0  0  0  0  0  0  0  0  0  0  0  0
   -0.2338    4.1659    0.0250 C   0  0  0  0  0  0  0  0  0  0  0  0
    1.1902   -2.2351   -0.0218 C   0  0  0  0  0  0  0  0  0  0  0  0
    1.1698   -2.7293   -1.4453 C   0  0  0  0  0  0  0  0  0  0  0  0
    1.1725   -1.9390   -2.3592 O   0  0  0  0  0  0  0  0  0  0  0  0
    3.7041   -0.8137   -0.0380 C   0  0  0  0  0  0  0  0  0  0  0  0
    2.8286   10.4733    2.5246 C   0  0  0  0  0  0  0  0  0  0  0  0
    3.7651   10.8389   -2.8020 H   0  0  0  0  0  0  0  0  0  0  0  0
    2.3615    9.8351   -3.2382 H   0  0  0  0  0  0  0  0  0  0  0  0
    2.1250   11.3531   -2.3394 H   0  0  0  0  0  0  0  0  0  0  0  0
    2.6440   11.4889    0.0284 H   0  0  0  0  0  0  0  0  0  0  0  0
    3.2488    7.8328    2.1395 H   0  0  0  0  0  0  0  0  0  0  0  0
    3.2178    7.8527   -2.1253 H   0  0  0  0  0  0  0  0  0  0  0  0
    4.0640    5.9234    0.8809 H   0  0  0  0  0  0  0  0  0  0  0  0
    4.0468    5.9310   -0.8990 H   0  0  0  0  0  0  0  0  0  0  0  0
    4.4168    4.0799   -0.0205 H   0  0  0  0  0  0  0  0  0  0  0  0
    4.5106    1.6389   -0.0320 H   0  0  0  0  0  0  0  0  0  0  0  0
   -0.5431    4.3350    1.0565 H   0  0  0  0  0  0  0  0  0  0  0  0
   -0.1318    5.1236   -0.4854 H   0  0  0  0  0  0  0  0  0  0  0  0
   -0.9837    3.5607   -0.4845 H   0  0  0  0  0  0  0  0  0  0  0  0
    2.0796   -2.6140    0.4817 H   0  0  0  0  0  0  0  0  0  0  0  0
    0.2999   -2.5886    0.4984 H   0  0  0  0  0  0  0  0  0  0  0  0
    4.0093   -0.9886   -1.0697 H   0  0  0  0  0  0  0  0  0  0  0  0
    4.4670   -0.2253    0.4718 H   0  0  0  0  0  0  0  0  0  0  0  0
    3.5816   -1.7694    0.4716 H   0  0  0  0  0  0  0  0  0  0  0  0
    3.8173   10.8138    2.8319 H   0  0  0  0  0  0  0  0  0  0  0  0
    2.1694   11.3330    2.4040 H   0  0  0  0  0  0  0  0  0  0  0  0
    2.4212    9.8070    3.2850 H   0  0  0  0  0  0  0  0  0  0  0  0
    1.1486   -4.0474   -1.6979 O   0  5  0  0  0  0  0  0  0  0  0  0
  1  2  1  0  0  0  0
  1 27  1  0  0  0  0
  1 28  1  0  0  0  0
  1 29  1  0  0  0  0
  2  7  2  0  0  0  0
  2  3  1  0  0  0  0
  3  4  2  0  0  0  0
  3 30  1  0  0  0  0
  4  5  1  0  0  0  0
  4 26  1  0  0  0  0
  5  6  2  0  0  0  0
  5 31  1  0  0  0  0
  6  7  1  0  0  0  0
  6  8  1  0  0  0  0
  7 32  1  0  0  0  0
  8  9  1  0  0  0  0
  8 33  1  0  0  0  0
  8 34  1  0  0  0  0
  9 10  1  0  0  0  0
 10 20  2  0  0  0  0
 10 11  1  0  0  0  0
 11 12  2  0  0  0  0
 11 35  1  0  0  0  0
 12 13  1  0  0  0  0
 12 36  1  0  0  0  0
 13 19  2  0  0  0  0
 13 14  1  0  0  0  0
 14 15  2  0  0  0  0
 14 25  1  0  0  0  0
 15 16  1  0  0  0  0
 15 22  1  0  0  0  0
 16 17  2  0  0  0  0
 16 18  1  0  0  0  0
 18 19  1  0  0  0  0
 19 20  1  0  0  0  0
 20 21  1  0  0  0  0
 21 37  1  0  0  0  0
 21 38  1  0  0  0  0
 21 39  1  0  0  0  0
 22 23  1  0  0  0  0
 22 40  1  0  0  0  0
 22 41  1  0  0  0  0
 23 24  2  0  0  0  0
 23 48  1  0  0  0  0
 25 42  1  0  0  0  0
 25 43  1  0  0  0  0
 25 44  1  0  0  0  0
 26 45  1  0  0  0  0
 26 46  1  0  0  0  0
 26 47  1  0  0  0  0
M  CHG  1  48  -1
M  END
$$$$
ZINC02148915
  -OEChem-08230709463D

 48 50  0     0  0  0  0  0  0999 V2000
    2.4811   -4.8111   -9.4024 C   0  0  0  0  0  0  0  0  0  0  0  0
    1.1753   -4.3583   -8.8016 C   0  0  0  0  0  0  0  0  0  0  0  0
   -0.0209   -4.8063   -9.3300 C   0  0  0  0  0  0  0  0  0  0  0  0
   -1.2186   -4.3913   -8.7785 C   0  0  0  0  0  0  0  0  0  0  0  0
   -1.2201   -3.5287   -7.6984 C   0  0  0  0  0  0  0  0  0  0  0  0
   -0.0239   -3.0813   -7.1694 C   0  0  0  0  0  0  0  0  0  0  0  0
    1.1737   -3.4922   -7.7242 C   0  0  0  0  0  0  0  0  0  0  0  0
   -0.0256   -2.1409   -5.9919 C   0  0  0  0  0  0  0  0  0  0  0  0
   -0.0042   -2.8962   -4.7790 O   0  0  0  0  0  0  0  0  0  0  0  0
   -0.0028   -2.1953   -3.6165 C   0  0  0  0  0  0  0  0  0  0  0  0
   -0.0222   -0.8021   -3.6494 C   0  0  0  0  0  0  0  0  0  0  0  0
   -0.0206   -0.0833   -2.4894 C   0  0  0  0  0  0  0  0  0  0  0  0
   -0.0059   -0.7494   -1.2585 C   0  0  0  0  0  0  0  0  0  0  0  0
    0.0021   -0.0041    0.0020 C   0  0  0  0  0  0  0  0  0  0  0  0
    0.0227   -0.7080    1.1637 C   0  0  0  0  0  0  0  0  0  0  0  0
    0.0410   -2.1174    1.1295 C   0  0  0  0  0  0  0  0  0  0  0  0
    0.0590   -2.7363    2.1783 O   0  0  0  0  0  0  0  0  0  0  0  0
    0.0389   -2.7946   -0.0294 O   0  0  0  0  0  0  0  0  0  0  0  0
    0.0189   -2.1559   -1.2189 C   0  0  0  0  0  0  0  0  0  0  0  0
    0.0174   -2.8707   -2.4073 C   0  0  0  0  0  0  0  0  0  0  0  0
    0.0254    0.0157    2.4856 C   0  0  0  0  0  0  0  0  0  0  0  0
   -1.4160    0.2410    2.9466 C   0  0  0  0  0  0  0  0  0  0  0  0
   -1.4133    0.9647    4.2685 C   0  0  0  0  0  0  0  0  0  0  0  0
   -0.3660    1.2690    4.7885 O   0  0  0  0  0  0  0  0  0  0  0  0
   -0.0184    1.5028    0.0103 C   0  0  0  0  0  0  0  0  0  0  0  0
   -2.5227   -4.8798   -9.3546 C   0  0  0  0  0  0  0  0  0  0  0  0
    2.7788   -4.1178  -10.1891 H   0  0  0  0  0  0  0  0  0  0  0  0
    3.2485   -4.8340   -8.6287 H   0  0  0  0  0  0  0  0  0  0  0  0
    2.3604   -5.8089   -9.8241 H   0  0  0  0  0  0  0  0  0  0  0  0
   -0.0197   -5.4809  -10.1734 H   0  0  0  0  0  0  0  0  0  0  0  0
   -2.1559   -3.2044   -7.2676 H   0  0  0  0  0  0  0  0  0  0  0  0
    2.1082   -3.1392   -7.3137 H   0  0  0  0  0  0  0  0  0  0  0  0
   -0.9242   -1.5246   -6.0204 H   0  0  0  0  0  0  0  0  0  0  0  0
    0.8555   -1.5008   -6.0369 H   0  0  0  0  0  0  0  0  0  0  0  0
   -0.0383   -0.2881   -4.5991 H   0  0  0  0  0  0  0  0  0  0  0  0
   -0.0357    0.9961   -2.5211 H   0  0  0  0  0  0  0  0  0  0  0  0
    0.0324   -3.9505   -2.3901 H   0  0  0  0  0  0  0  0  0  0  0  0
    0.5544   -0.5834    3.2267 H   0  0  0  0  0  0  0  0  0  0  0  0
    0.5251    0.9777    2.3721 H   0  0  0  0  0  0  0  0  0  0  0  0
   -1.9451    0.8401    2.2055 H   0  0  0  0  0  0  0  0  0  0  0  0
   -1.9158   -0.7210    3.0601 H   0  0  0  0  0  0  0  0  0  0  0  0
    1.0042    1.8801    0.0026 H   0  0  0  0  0  0  0  0  0  0  0  0
   -0.5455    1.8639   -0.8728 H   0  0  0  0  0  0  0  0  0  0  0  0
   -0.5286    1.8543    0.9071 H   0  0  0  0  0  0  0  0  0  0  0  0
   -2.8546   -4.1947  -10.1347 H   0  0  0  0  0  0  0  0  0  0  0  0
   -2.3826   -5.8738   -9.7794 H   0  0  0  0  0  0  0  0  0  0  0  0
   -3.2742   -4.9242   -8.5663 H   0  0  0  0  0  0  0  0  0  0  0  0
   -2.5744    1.2712    4.8682 O   0  5  0  0  0  0  0  0  0  0  0  0
  1  2  1  0  0  0  0
  1 27  1  0  0  0  0
  1 28  1  0  0  0  0
  1 29  1  0  0  0  0
  2  7  2  0  0  0  0
  2  3  1  0  0  0  0
  3  4  2  0  0  0  0
  3 30  1  0  0  0  0
  4  5  1  0  0  0  0
  4 26  1  0  0  0  0
  5  6  2  0  0  0  0
  5 31  1  0  0  0  0
  6  7  1  0  0  0  0
  6  8  1  0  0  0  0
  7 32  1  0  0  0  0
  8  9  1  0  0  0  0
  8 33  1  0  0  0  0
  8 34  1  0  0  0  0
  9 10  1  0  0  0  0
 10 20  2  0  0  0  0
 10 11  1  0  0  0  0
 11 12  2  0  0  0  0
 11 35  1  0  0  0  0
 12 13  1  0  0  0  0
 12 36  1  0  0  0  0
 13 19  2  0  0  0  0
 13 14  1  0  0  0  0
 14 15  2  0  0  0  0
 14 25  1  0  0  0  0
 15 16  1  0  0  0  0
 15 21  1  0  0  0  0
 16 17  2  0  0  0  0
 16 18  1  0  0  0  0
 18 19  1  0  0  0  0
 19 20  1  0  0  0  0
 20 37  1  0  0  0  0
 21 22  1  0  0  0  0
 21 38  1  0  0  0  0
 21 39  1  0  0  0  0
 22 23  1  0  0  0  0
 22 40  1  0  0  0  0
 22 41  1  0  0  0  0
 23 24  2  0  0  0  0
 23 48  1  0  0  0  0
 25 42  1  0  0  0  0
 25 43  1  0  0  0  0
 25 44  1  0  0  0  0
 26 45  1  0  0  0  0
 26 46  1  0  0  0  0
 26 47  1  0  0  0  0
M  CHG  1  48  -1
M  END
$$$$
ZINC02149621
  -OEChem-08230709463D

 51 53  0     0  0  0  0  0  0999 V2000
    0.3345   10.0882    0.0430 C   0  0  0  0  0  0  0  0  0  0  0  0
    1.7422    9.5506    0.0280 C   0  0  0  0  0  0  0  0  0  0  0  0
    2.8152   10.4226    0.0213 C   0  0  0  0  0  0  0  0  0  0  0  0
    4.1063    9.9295    0.0071 C   0  0  0  0  0  0  0  0  0  0  0  0
    4.3249    8.5644   -0.0004 C   0  0  0  0  0  0  0  0  0  0  0  0
    3.2523    7.6927    0.0063 C   0  0  0  0  0  0  0  0  0  0  0  0
    1.9607    8.1859    0.0152 C   0  0  0  0  0  0  0  0  0  0  0  0
    3.4906    6.2047   -0.0024 C   0  0  0  0  0  0  0  0  0  0  0  0
    2.2356    5.5213    0.0069 O   0  0  0  0  0  0  0  0  0  0  0  0
    2.2728    4.1643    0.0007 C   0  0  0  0  0  0  0  0  0  0  0  0
    3.5015    3.5066   -0.0145 C   0  0  0  0  0  0  0  0  0  0  0  0
    3.5556    2.1431   -0.0208 C   0  0  0  0  0  0  0  0  0  0  0  0
    2.3695    1.4000   -0.0130 C   0  0  0  0  0  0  0  0  0  0  0  0
    2.3969   -0.0641   -0.0211 C   0  0  0  0  0  0  0  0  0  0  0  0
    1.2118   -0.7283   -0.0134 C   0  0  0  0  0  0  0  0  0  0  0  0
    0.0021   -0.0041    0.0020 C   0  0  0  0  0  0  0  0  0  0  0  0
   -1.0533   -0.6119    0.0092 O   0  0  0  0  0  0  0  0  0  0  0  0
   -0.0161    1.3380    0.0094 O   0  0  0  0  0  0  0  0  0  0  0  0
    1.1259    2.0584    0.0024 C   0  0  0  0  0  0  0  0  0  0  0  0
    1.0893    3.4447    0.0091 C   0  0  0  0  0  0  0  0  0  0  0  0
   -0.2338    4.1659    0.0260 C   0  0  0  0  0  0  0  0  0  0  0  0
    1.1902   -2.2351   -0.0218 C   0  0  0  0  0  0  0  0  0  0  0  0
    1.1695   -2.7368   -1.4670 C   0  0  0  0  0  0  0  0  0  0  0  0
    1.1478   -4.2436   -1.4754 C   0  0  0  0  0  0  0  0  0  0  0  0
    1.1489   -4.8536   -0.4324 O   0  0  0  0  0  0  0  0  0  0  0  0
    3.7041   -0.8137   -0.0380 C   0  0  0  0  0  0  0  0  0  0  0  0
    5.7327    8.0268   -0.0164 C   0  0  0  0  0  0  0  0  0  0  0  0
   -0.0144   10.2216   -0.9810 H   0  0  0  0  0  0  0  0  0  0  0  0
   -0.3177    9.3845    0.5603 H   0  0  0  0  0  0  0  0  0  0  0  0
    0.3173   11.0474    0.5605 H   0  0  0  0  0  0  0  0  0  0  0  0
    2.6444   11.4890    0.0269 H   0  0  0  0  0  0  0  0  0  0  0  0
    4.9444   10.6106    0.0015 H   0  0  0  0  0  0  0  0  0  0  0  0
    1.1226    7.5048    0.0159 H   0  0  0  0  0  0  0  0  0  0  0  0
    4.0640    5.9234    0.8809 H   0  0  0  0  0  0  0  0  0  0  0  0
    4.0468    5.9310   -0.8990 H   0  0  0  0  0  0  0  0  0  0  0  0
    4.4168    4.0799   -0.0205 H   0  0  0  0  0  0  0  0  0  0  0  0
    4.5106    1.6389   -0.0320 H   0  0  0  0  0  0  0  0  0  0  0  0
   -0.5423    4.3351    1.0577 H   0  0  0  0  0  0  0  0  0  0  0  0
   -0.1322    5.1236   -0.4845 H   0  0  0  0  0  0  0  0  0  0  0  0
   -0.9840    3.5607   -0.4829 H   0  0  0  0  0  0  0  0  0  0  0  0
    2.0796   -2.6140    0.4817 H   0  0  0  0  0  0  0  0  0  0  0  0
    0.2999   -2.5886    0.4984 H   0  0  0  0  0  0  0  0  0  0  0  0
    0.2800   -2.3579   -1.9704 H   0  0  0  0  0  0  0  0  0  0  0  0
    2.0597   -2.3833   -1.9872 H   0  0  0  0  0  0  0  0  0  0  0  0
    4.0093   -0.9886   -1.0697 H   0  0  0  0  0  0  0  0  0  0  0  0
    4.4670   -0.2253    0.4718 H   0  0  0  0  0  0  0  0  0  0  0  0
    3.5816   -1.7694    0.4716 H   0  0  0  0  0  0  0  0  0  0  0  0
    6.0621    7.9016   -1.0479 H   0  0  0  0  0  0  0  0  0  0  0  0
    6.3946    8.7264    0.4940 H   0  0  0  0  0  0  0  0  0  0  0  0
    5.7595    7.0635    0.4930 H   0  0  0  0  0  0  0  0  0  0  0  0
    1.1274   -4.9081   -2.6415 O   0  5  0  0  0  0  0  0  0  0  0  0
  1  2  1  0  0  0  0
  1 28  1  0  0  0  0
  1 29  1  0  0  0  0
  1 30  1  0  0  0  0
  2  7  2  0  0  0  0
  2  3  1  0  0  0  0
  3  4  2  0  0  0  0
  3 31  1  0  0  0  0
  4  5  1  0  0  0  0
  4 32  1  0  0  0  0
  5  6  2  0  0  0  0
  5 27  1  0  0  0  0
  6  7  1  0  0  0  0
  6  8  1  0  0  0  0
  7 33  1  0  0  0  0
  8  9  1  0  0  0  0
  8 34  1  0  0  0  0
  8 35  1  0  0  0  0
  9 10  1  0  0  0  0
 10 20  2  0  0  0  0
 10 11  1  0  0  0  0
 11 12  2  0  0  0  0
 11 36  1  0  0  0  0
 12 13  1  0  0  0  0
 12 37  1  0  0  0  0
 13 19  2  0  0  0  0
 13 14  1  0  0  0  0
 14 15  2  0  0  0  0
 14 26  1  0  0  0  0
 15 16  1  0  0  0  0
 15 22  1  0  0  0  0
 16 17  2  0  0  0  0
 16 18  1  0  0  0  0
 18 19  1  0  0  0  0
 19 20  1  0  0  0  0
 20 21  1  0  0  0  0
 21 38  1  0  0  0  0
 21 39  1  0  0  0  0
 21 40  1  0  0  0  0
 22 23  1  0  0  0  0
 22 41  1  0  0  0  0
 22 42  1  0  0  0  0
 23 24  1  0  0  0  0
 23 43  1  0  0  0  0
 23 44  1  0  0  0  0
 24 25  2  0  0  0  0
 24 51  1  0  0  0  0
 26 45  1  0  0  0  0
 26 46  1  0  0  0  0
 26 47  1  0  0  0  0
 27 48  1  0  0  0  0
 27 49  1  0  0  0  0
 27 50  1  0  0  0  0
M  CHG  1  51  -1
M  END
$$$$
ZINC02149703
  -OEChem-08230709463D

 52 54  0     1  0  0  0  0  0999 V2000
   -8.8312    7.4188   -3.0059 C   0  0  0  0  0  0  0  0  0  0  0  0
   -8.0431    6.7138   -1.9002 C   0  0  0  0  0  0  0  0  0  0  0  0
   -8.7622    5.4221   -1.5057 C   0  0  0  0  0  0  0  0  0  0  0  0
   -7.9406    7.6330   -0.6815 C   0  0  0  0  0  0  0  0  0  0  0  0
   -6.7313    6.4030   -2.3742 O   0  0  0  0  0  0  0  0  0  0  0  0
   -5.9708    7.5459   -2.7709 C   0  0  0  0  0  0  0  0  0  0  0  0
   -4.5917    7.0967   -3.2580 C   0  0  2  0  0  0  0  0  0  0  0  0
   -4.0444    7.9571   -3.6432 H   0  0  0  0  0  0  0  0  0  0  0  0
   -4.7541    6.0736   -4.3524 C   0  0  0  0  0  0  0  0  0  0  0  0
   -4.2963    4.9639   -4.2148 O   0  0  0  0  0  0  0  0  0  0  0  0
   -3.8488    6.5049   -2.1426 N   0  0  0  0  0  0  0  0  0  0  0  0
   -2.5011    6.4979   -2.1588 C   0  0  0  0  0  0  0  0  0  0  0  0
   -1.9023    6.9824   -3.0986 O   0  0  0  0  0  0  0  0  0  0  0  0
   -1.8183    5.9540   -1.1337 O   0  0  0  0  0  0  0  0  0  0  0  0
   -0.3691    5.9817   -1.2185 C   0  0  0  0  0  0  0  0  0  0  0  0
    0.2273    5.3234    0.0272 C   0  0  1  0  0  0  0  0  0  0  0  0
   -0.0641    3.8428    0.0224 C   0  0  0  0  0  0  0  0  0  0  0  0
   -1.2453    3.1318    0.0294 C   0  0  0  0  0  0  0  0  0  0  0  0
   -1.2212    1.7483    0.0173 C   0  0  0  0  0  0  0  0  0  0  0  0
   -0.0126    1.0758    0.0080 C   0  0  0  0  0  0  0  0  0  0  0  0
    1.1742    1.7791    0.0004 C   0  0  0  0  0  0  0  0  0  0  0  0
    1.1575    3.1749    0.0076 C   0  0  0  0  0  0  0  0  0  0  0  0
    2.2622    4.1657    0.0022 C   0  0  0  0  0  0  0  0  0  0  0  0
    1.7308    5.4525    0.0137 C   0  0  0  0  0  0  0  0  0  0  0  0
    2.5657    6.5497    0.0110 C   0  0  0  0  0  0  0  0  0  0  0  0
    3.9383    6.3757   -0.0032 C   0  0  0  0  0  0  0  0  0  0  0  0
    4.4757    5.1012   -0.0147 C   0  0  0  0  0  0  0  0  0  0  0  0
    3.6479    3.9977   -0.0116 C   0  0  0  0  0  0  0  0  0  0  0  0
   -8.9043    6.7639   -3.8742 H   0  0  0  0  0  0  0  0  0  0  0  0
   -9.8318    7.6559   -2.6444 H   0  0  0  0  0  0  0  0  0  0  0  0
   -8.3190    8.3390   -3.2870 H   0  0  0  0  0  0  0  0  0  0  0  0
   -8.2007    4.9198   -0.7179 H   0  0  0  0  0  0  0  0  0  0  0  0
   -9.7627    5.6592   -1.1441 H   0  0  0  0  0  0  0  0  0  0  0  0
   -8.8352    4.7672   -2.3739 H   0  0  0  0  0  0  0  0  0  0  0  0
   -7.4283    8.5532   -0.9625 H   0  0  0  0  0  0  0  0  0  0  0  0
   -8.9411    7.8701   -0.3199 H   0  0  0  0  0  0  0  0  0  0  0  0
   -7.3791    7.1307    0.1063 H   0  0  0  0  0  0  0  0  0  0  0  0
   -5.8547    8.2180   -1.9207 H   0  0  0  0  0  0  0  0  0  0  0  0
   -6.4892    8.0655   -3.5767 H   0  0  0  0  0  0  0  0  0  0  0  0
   -4.3268    6.1181   -1.3924 H   0  0  0  0  0  0  0  0  0  0  0  0
   -0.0285    7.0152   -1.2817 H   0  0  0  0  0  0  0  0  0  0  0  0
   -0.0466    5.4379   -2.1065 H   0  0  0  0  0  0  0  0  0  0  0  0
   -0.1808    5.7833    0.9272 H   0  0  0  0  0  0  0  0  0  0  0  0
   -2.1901    3.6550    0.0409 H   0  0  0  0  0  0  0  0  0  0  0  0
   -2.1474    1.1928    0.0191 H   0  0  0  0  0  0  0  0  0  0  0  0
    0.0021   -0.0041    0.0020 H   0  0  0  0  0  0  0  0  0  0  0  0
    2.1156    1.2500   -0.0107 H   0  0  0  0  0  0  0  0  0  0  0  0
    2.1480    7.5457    0.0203 H   0  0  0  0  0  0  0  0  0  0  0  0
    4.5910    7.2362   -0.0057 H   0  0  0  0  0  0  0  0  0  0  0  0
    5.5476    4.9695   -0.0254 H   0  0  0  0  0  0  0  0  0  0  0  0
    4.0717    3.0044   -0.0203 H   0  0  0  0  0  0  0  0  0  0  0  0
   -5.4074    6.3950   -5.4801 O   0  5  0  0  0  0  0  0  0  0  0  0
  1  2  1  0  0  0  0
  1 29  1  0  0  0  0
  1 30  1  0  0  0  0
  1 31  1  0  0  0  0
  2  3  1  0  0  0  0
  2  4  1  0  0  0  0
  2  5  1  0  0  0  0
  3 32  1  0  0  0  0
  3 33  1  0  0  0  0
  3 34  1  0  0  0  0
  4 35  1  0  0  0  0
  4 36  1  0  0  0  0
  4 37  1  0  0  0  0
  5  6  1  0  0  0  0
  6  7  1  0  0  0  0
  6 38  1  0  0  0  0
  6 39  1  0  0  0  0
  7  8  1  0  0  0  0
  7  9  1  0  0  0  0
  7 11  1  0  0  0  0
  9 10  2  0  0  0  0
  9 52  1  0  0  0  0
 11 12  1  0  0  0  0
 11 40  1  0  0  0  0
 12 13  2  0  0  0  0
 12 14  1  0  0  0  0
 14 15  1  0  0  0  0
 15 16  1  0  0  0  0
 15 41  1  0  0  0  0
 15 42  1  0  0  0  0
 16 24  1  0  0  0  0
 16 17  1  0  0  0  0
 16 43  1  0  0  0  0
 17 22  2  0  0  0  0
 17 18  1  0  0  0  0
 18 19  2  0  0  0  0
 18 44  1  0  0  0  0
 19 20  1  0  0  0  0
 19 45  1  0  0  0  0
 20 21  2  0  0  0  0
 20 46  1  0  0  0  0
 21 22  1  0  0  0  0
 21 47  1  0  0  0  0
 22 23  1  0  0  0  0
 23 28  2  0  0  0  0
 23 24  1  0  0  0  0
 24 25  2  0  0  0  0
 25 26  1  0  0  0  0
 25 48  1  0  0  0  0
 26 27  2  0  0  0  0
 26 49  1  0  0  0  0
 27 28  1  0  0  0  0
 27 50  1  0  0  0  0
 28 51  1  0  0  0  0
M  CHG  1  52  -1
M  END
$$$$
ZINC02149948
  -OEChem-08230709463D

 48 50  0     0  0  0  0  0  0999 V2000
  -10.5724   -6.1907    1.0510 C   0  0  0  0  0  0  0  0  0  0  0  0
  -10.1911   -5.8408   -0.3643 C   0  0  0  0  0  0  0  0  0  0  0  0
  -10.8628   -6.4203   -1.4246 C   0  0  0  0  0  0  0  0  0  0  0  0
  -10.5127   -6.0998   -2.7227 C   0  0  0  0  0  0  0  0  0  0  0  0
   -9.4908   -5.1996   -2.9608 C   0  0  0  0  0  0  0  0  0  0  0  0
   -8.8192   -4.6202   -1.9008 C   0  0  0  0  0  0  0  0  0  0  0  0
   -9.1659   -4.9448   -0.6024 C   0  0  0  0  0  0  0  0  0  0  0  0
   -7.7050   -3.6393   -2.1604 C   0  0  0  0  0  0  0  0  0  0  0  0
   -7.1720   -3.1834   -0.9154 O   0  0  0  0  0  0  0  0  0  0  0  0
   -6.1531   -2.2882   -0.9720 C   0  0  0  0  0  0  0  0  0  0  0  0
   -5.6778   -1.8595   -2.2100 C   0  0  0  0  0  0  0  0  0  0  0  0
   -4.6542   -0.9600   -2.2836 C   0  0  0  0  0  0  0  0  0  0  0  0
   -4.0778   -0.4646   -1.1083 C   0  0  0  0  0  0  0  0  0  0  0  0
   -2.9824    0.5061   -1.1565 C   0  0  0  0  0  0  0  0  0  0  0  0
   -2.4615    0.9450    0.0189 C   0  0  0  0  0  0  0  0  0  0  0  0
   -2.9867    0.4718    1.2389 C   0  0  0  0  0  0  0  0  0  0  0  0
   -2.5136    0.8769    2.2855 O   0  0  0  0  0  0  0  0  0  0  0  0
   -3.9944   -0.4141    1.2763 O   0  0  0  0  0  0  0  0  0  0  0  0
   -4.5531   -0.8942    0.1447 C   0  0  0  0  0  0  0  0  0  0  0  0
   -5.5941   -1.8087    0.2011 C   0  0  0  0  0  0  0  0  0  0  0  0
   -6.1156   -2.2790    1.5345 C   0  0  0  0  0  0  0  0  0  0  0  0
   -1.3295    1.9397    0.0189 C   0  0  0  0  0  0  0  0  0  0  0  0
   -0.0143    1.2041    0.0087 C   0  0  0  0  0  0  0  0  0  0  0  0
    0.0021   -0.0041    0.0020 O   0  0  0  0  0  0  0  0  0  0  0  0
   -2.4438    1.0004   -2.4743 C   0  0  0  0  0  0  0  0  0  0  0  0
   -9.1087   -4.8504   -4.3762 C   0  0  0  0  0  0  0  0  0  0  0  0
   -9.9859   -7.0469    1.3843 H   0  0  0  0  0  0  0  0  0  0  0  0
  -10.3742   -5.3390    1.7018 H   0  0  0  0  0  0  0  0  0  0  0  0
  -11.6330   -6.4392    1.0907 H   0  0  0  0  0  0  0  0  0  0  0  0
  -11.6609   -7.1238   -1.2386 H   0  0  0  0  0  0  0  0  0  0  0  0
  -11.0373   -6.5528   -3.5510 H   0  0  0  0  0  0  0  0  0  0  0  0
   -8.6382   -4.4955    0.2258 H   0  0  0  0  0  0  0  0  0  0  0  0
   -8.0925   -2.7897   -2.7226 H   0  0  0  0  0  0  0  0  0  0  0  0
   -6.9181   -4.1272   -2.7356 H   0  0  0  0  0  0  0  0  0  0  0  0
   -6.1227   -2.2413   -3.1170 H   0  0  0  0  0  0  0  0  0  0  0  0
   -4.2903   -0.6311   -3.2458 H   0  0  0  0  0  0  0  0  0  0  0  0
   -6.9194   -1.6202    1.8631 H   0  0  0  0  0  0  0  0  0  0  0  0
   -6.4960   -3.2959    1.4377 H   0  0  0  0  0  0  0  0  0  0  0  0
   -5.3088   -2.2611    2.2671 H   0  0  0  0  0  0  0  0  0  0  0  0
   -1.3915    2.5607    0.9126 H   0  0  0  0  0  0  0  0  0  0  0  0
   -1.4000    2.5704   -0.8673 H   0  0  0  0  0  0  0  0  0  0  0  0
   -1.6356    0.3476   -2.8044 H   0  0  0  0  0  0  0  0  0  0  0  0
   -3.2411    0.9957   -3.2175 H   0  0  0  0  0  0  0  0  0  0  0  0
   -2.0650    2.0154   -2.3543 H   0  0  0  0  0  0  0  0  0  0  0  0
   -8.3386   -5.5385   -4.7249 H   0  0  0  0  0  0  0  0  0  0  0  0
   -9.9852   -4.9300   -5.0193 H   0  0  0  0  0  0  0  0  0  0  0  0
   -8.7260   -3.8303   -4.4081 H   0  0  0  0  0  0  0  0  0  0  0  0
    1.1389    1.8910    0.0013 O   0  5  0  0  0  0  0  0  0  0  0  0
  1  2  1  0  0  0  0
  1 27  1  0  0  0  0
  1 28  1  0  0  0  0
  1 29  1  0  0  0  0
  2  7  2  0  0  0  0
  2  3  1  0  0  0  0
  3  4  2  0  0  0  0
  3 30  1  0  0  0  0
  4  5  1  0  0  0  0
  4 31  1  0  0  0  0
  5  6  2  0  0  0  0
  5 26  1  0  0  0  0
  6  7  1  0  0  0  0
  6  8  1  0  0  0  0
  7 32  1  0  0  0  0
  8  9  1  0  0  0  0
  8 33  1  0  0  0  0
  8 34  1  0  0  0  0
  9 10  1  0  0  0  0
 10 20  2  0  0  0  0
 10 11  1  0  0  0  0
 11 12  2  0  0  0  0
 11 35  1  0  0  0  0
 12 13  1  0  0  0  0
 12 36  1  0  0  0  0
 13 19  2  0  0  0  0
 13 14  1  0  0  0  0
 14 15  2  0  0  0  0
 14 25  1  0  0  0  0
 15 16  1  0  0  0  0
 15 22  1  0  0  0  0
 16 17  2  0  0  0  0
 16 18  1  0  0  0  0
 18 19  1  0  0  0  0
 19 20  1  0  0  0  0
 20 21  1  0  0  0  0
 21 37  1  0  0  0  0
 21 38  1  0  0  0  0
 21 39  1  0  0  0  0
 22 23  1  0  0  0  0
 22 40  1  0  0  0  0
 22 41  1  0  0  0  0
 23 24  2  0  0  0  0
 23 48  1  0  0  0  0
 25 42  1  0  0  0  0
 25 43  1  0  0  0  0
 25 44  1  0  0  0  0
 26 45  1  0  0  0  0
 26 46  1  0  0  0  0
 26 47  1  0  0  0  0
M  CHG  1  48  -1
M  END
$$$$
ZINC02150252
  -OEChem-08230709463D

 60 62  0     0  0  0  0  0  0999 V2000
    1.5796    9.8288    0.0398 C   0  0  0  0  0  0  0  0  0  0  0  0
    1.7989    8.3379    0.0297 C   0  0  0  0  0  0  0  0  0  0  0  0
    1.9101    7.6476    1.2221 C   0  0  0  0  0  0  0  0  0  0  0  0
    2.1112    6.2800    1.2128 C   0  0  0  0  0  0  0  0  0  0  0  0
    2.2004    5.6026    0.0111 C   0  0  0  0  0  0  0  0  0  0  0  0
    2.0940    6.2936   -1.1814 C   0  0  0  0  0  0  0  0  0  0  0  0
    1.8885    7.6606   -1.1721 C   0  0  0  0  0  0  0  0  0  0  0  0
    1.7669    8.4131   -2.4720 C   0  0  0  0  0  0  0  0  0  0  0  0
    2.1973    5.5561   -2.4915 C   0  0  0  0  0  0  0  0  0  0  0  0
    2.4196    4.1117    0.0010 C   0  0  0  0  0  0  0  0  0  0  0  0
    1.1561    3.4443    0.0095 O   0  0  0  0  0  0  0  0  0  0  0  0
    1.1759    2.0870    0.0020 C   0  0  0  0  0  0  0  0  0  0  0  0
    2.3961    1.4137   -0.0122 C   0  0  0  0  0  0  0  0  0  0  0  0
    2.4328    0.0496   -0.0204 C   0  0  0  0  0  0  0  0  0  0  0  0
    1.2373   -0.6783   -0.0134 C   0  0  0  0  0  0  0  0  0  0  0  0
    1.2462   -2.1426   -0.0204 C   0  0  0  0  0  0  0  0  0  0  0  0
    0.0529   -2.7917   -0.0120 C   0  0  0  0  0  0  0  0  0  0  0  0
   -1.1475   -2.0523    0.0029 C   0  0  0  0  0  0  0  0  0  0  0  0
   -2.2105   -2.6468    0.0102 O   0  0  0  0  0  0  0  0  0  0  0  0
   -1.1489   -0.7101    0.0097 O   0  0  0  0  0  0  0  0  0  0  0  0
    0.0021   -0.0041    0.0020 C   0  0  0  0  0  0  0  0  0  0  0  0
   -0.0167    1.3826    0.0096 C   0  0  0  0  0  0  0  0  0  0  0  0
   -1.3306    2.1207    0.0199 C   0  0  0  0  0  0  0  0  0  0  0  0
    0.0123   -4.2982   -0.0192 C   0  0  0  0  0  0  0  0  0  0  0  0
   -0.0149   -4.8007   -1.4641 C   0  0  0  0  0  0  0  0  0  0  0  0
   -0.0555   -6.3072   -1.4712 C   0  0  0  0  0  0  0  0  0  0  0  0
   -0.0620   -6.9163   -0.4278 O   0  0  0  0  0  0  0  0  0  0  0  0
    2.5439   -2.9086   -0.0368 C   0  0  0  0  0  0  0  0  0  0  0  0
    2.2329    5.5274    2.5128 C   0  0  0  0  0  0  0  0  0  0  0  0
    1.8124    8.3859    2.5322 C   0  0  0  0  0  0  0  0  0  0  0  0
    2.5434   10.3379    0.0341 H   0  0  0  0  0  0  0  0  0  0  0  0
    1.0106   10.1184   -0.8437 H   0  0  0  0  0  0  0  0  0  0  0  0
    1.0263   10.1086    0.9362 H   0  0  0  0  0  0  0  0  0  0  0  0
    2.7543    8.7442   -2.7940 H   0  0  0  0  0  0  0  0  0  0  0  0
    1.3373    7.7597   -3.2313 H   0  0  0  0  0  0  0  0  0  0  0  0
    1.1212    9.2799   -2.3311 H   0  0  0  0  0  0  0  0  0  0  0  0
    1.2055    5.2287   -2.8033 H   0  0  0  0  0  0  0  0  0  0  0  0
    2.6163    6.2182   -3.2491 H   0  0  0  0  0  0  0  0  0  0  0  0
    2.8449    4.6878   -2.3695 H   0  0  0  0  0  0  0  0  0  0  0  0
    2.9893    3.8222    0.8841 H   0  0  0  0  0  0  0  0  0  0  0  0
    2.9723    3.8318   -0.8958 H   0  0  0  0  0  0  0  0  0  0  0  0
    3.3187    1.9752   -0.0176 H   0  0  0  0  0  0  0  0  0  0  0  0
    3.3813   -0.4667   -0.0326 H   0  0  0  0  0  0  0  0  0  0  0  0
   -1.6425    2.2931    1.0500 H   0  0  0  0  0  0  0  0  0  0  0  0
   -1.2138    3.0774   -0.4893 H   0  0  0  0  0  0  0  0  0  0  0  0
   -2.0857    1.5255   -0.4936 H   0  0  0  0  0  0  0  0  0  0  0  0
    0.8969   -4.6879    0.4844 H   0  0  0  0  0  0  0  0  0  0  0  0
   -0.8823   -4.6400    0.5013 H   0  0  0  0  0  0  0  0  0  0  0  0
   -0.8995   -4.4110   -1.9677 H   0  0  0  0  0  0  0  0  0  0  0  0
    0.8797   -4.4589   -1.9846 H   0  0  0  0  0  0  0  0  0  0  0  0
    2.8468   -3.0881   -1.0684 H   0  0  0  0  0  0  0  0  0  0  0  0
    3.3142   -2.3294    0.4725 H   0  0  0  0  0  0  0  0  0  0  0  0
    2.4094   -3.8622    0.4735 H   0  0  0  0  0  0  0  0  0  0  0  0
    3.2789    5.4953    2.8175 H   0  0  0  0  0  0  0  0  0  0  0  0
    1.6461    6.0315    3.2807 H   0  0  0  0  0  0  0  0  0  0  0  0
    1.8616    4.5112    2.3805 H   0  0  0  0  0  0  0  0  0  0  0  0
    2.8055    8.7136    2.8395 H   0  0  0  0  0  0  0  0  0  0  0  0
    1.1643    9.2541    2.4125 H   0  0  0  0  0  0  0  0  0  0  0  0
    1.3968    7.7242    3.2921 H   0  0  0  0  0  0  0  0  0  0  0  0
   -0.0844   -6.9722   -2.6368 O   0  5  0  0  0  0  0  0  0  0  0  0
  1  2  1  0  0  0  0
  1 31  1  0  0  0  0
  1 32  1  0  0  0  0
  1 33  1  0  0  0  0
  2  7  2  0  0  0  0
  2  3  1  0  0  0  0
  3  4  2  0  0  0  0
  3 30  1  0  0  0  0
  4  5  1  0  0  0  0
  4 29  1  0  0  0  0
  5  6  2  0  0  0  0
  5 10  1  0  0  0  0
  6  7  1  0  0  0  0
  6  9  1  0  0  0  0
  7  8  1  0  0  0  0
  8 34  1  0  0  0  0
  8 35  1  0  0  0  0
  8 36  1  0  0  0  0
  9 37  1  0  0  0  0
  9 38  1  0  0  0  0
  9 39  1  0  0  0  0
 10 11  1  0  0  0  0
 10 40  1  0  0  0  0
 10 41  1  0  0  0  0
 11 12  1  0  0  0  0
 12 22  2  0  0  0  0
 12 13  1  0  0  0  0
 13 14  2  0  0  0  0
 13 42  1  0  0  0  0
 14 15  1  0  0  0  0
 14 43  1  0  0  0  0
 15 21  2  0  0  0  0
 15 16  1  0  0  0  0
 16 17  2  0  0  0  0
 16 28  1  0  0  0  0
 17 18  1  0  0  0  0
 17 24  1  0  0  0  0
 18 19  2  0  0  0  0
 18 20  1  0  0  0  0
 20 21  1  0  0  0  0
 21 22  1  0  0  0  0
 22 23  1  0  0  0  0
 23 44  1  0  0  0  0
 23 45  1  0  0  0  0
 23 46  1  0  0  0  0
 24 25  1  0  0  0  0
 24 47  1  0  0  0  0
 24 48  1  0  0  0  0
 25 26  1  0  0  0  0
 25 49  1  0  0  0  0
 25 50  1  0  0  0  0
 26 27  2  0  0  0  0
 26 60  1  0  0  0  0
 28 51  1  0  0  0  0
 28 52  1  0  0  0  0
 28 53  1  0  0  0  0
 29 54  1  0  0  0  0
 29 55  1  0  0  0  0
 29 56  1  0  0  0  0
 30 57  1  0  0  0  0
 30 58  1  0  0  0  0
 30 59  1  0  0  0  0
M  CHG  1  60  -1
M  END
$$$$
ZINC02151006
  -OEChem-08230709463D

 64 67  0     1  0  0  0  0  0999 V2000
   -1.5671    6.8759   -2.6363 C   0  0  0  0  0  0  0  0  0  0  0  0
   -1.0436    5.5701   -2.0347 C   0  0  0  0  0  0  0  0  0  0  0  0
   -2.1711    4.8484   -1.3425 C   0  0  0  0  0  0  0  0  0  0  0  0
   -3.2795    5.3292   -1.3315 O   0  0  0  0  0  0  0  0  0  0  0  0
   -1.9439    3.6716   -0.7382 O   0  0  0  0  0  0  0  0  0  0  0  0
   -3.0763    3.0332   -0.0915 C   0  0  2  0  0  0  0  0  0  0  0  0
   -4.0041    3.3213   -0.5858 H   0  0  0  0  0  0  0  0  0  0  0  0
   -3.1255    3.4213    1.4007 C   0  0  0  0  0  0  0  0  0  0  0  0
   -2.9733    2.0970    2.2116 C   0  0  0  0  0  0  0  0  0  0  0  0
   -2.2359    1.1556    1.2123 C   0  0  1  0  0  0  0  0  0  0  0  0
   -2.3603    0.1034    1.4686 H   0  0  0  0  0  0  0  0  0  0  0  0
   -2.9122    1.5079   -0.1213 C   0  0  2  0  0  0  0  0  0  0  0  0
   -2.1094    1.0463   -1.3171 C   0  0  0  0  0  0  0  0  0  0  0  0
   -0.6864    1.6010   -1.2731 C   0  0  0  0  0  0  0  0  0  0  0  0
   -0.0127    1.0858    0.0080 C   0  0  2  0  0  0  0  0  0  0  0  0
    0.0021   -0.0041    0.0020 H   0  0  0  0  0  0  0  0  0  0  0  0
   -0.7614    1.5798    1.2326 C   0  0  2  0  0  0  0  0  0  0  0  0
   -0.7257    2.6691    1.2429 H   0  0  0  0  0  0  0  0  0  0  0  0
   -0.1831    1.0810    2.5365 C   0  0  0  0  0  0  0  0  0  0  0  0
    1.3150    0.8325    2.4594 C   0  0  0  0  0  0  0  0  0  0  0  0
    1.9262    1.7275    1.4135 C   0  0  0  0  0  0  0  0  0  0  0  0
    2.8838    2.5852    1.7290 C   0  0  0  0  0  0  0  0  0  0  0  0
    3.4477    3.4683    0.6903 C   0  0  0  0  0  0  0  0  0  0  0  0
    2.7790    3.6603   -0.4492 C   0  0  0  0  0  0  0  0  0  0  0  0
    1.4417    3.0009   -0.6639 C   0  0  0  0  0  0  0  0  0  0  0  0
    1.4262    1.6224   -0.0028 C   0  0  2  0  0  0  0  0  0  0  0  0
    2.3218    0.6666   -0.7936 C   0  0  0  0  0  0  0  0  0  0  0  0
    4.6754    4.1000    0.8979 N   0  0  0  0  0  0  0  0  0  0  0  0
    5.2140    4.9466   -0.1013 O   0  0  0  0  0  0  0  0  0  0  0  0
    6.4739    5.5255    0.2445 C   0  0  0  0  0  0  0  0  0  0  0  0
    6.9505    6.4025   -0.8845 C   0  0  0  0  0  0  0  0  0  0  0  0
    6.2801    6.5198   -1.8829 O   0  0  0  0  0  0  0  0  0  0  0  0
   -4.2964    0.8576   -0.1663 C   0  0  0  0  0  0  0  0  0  0  0  0
   -1.9690    7.5060   -1.8429 H   0  0  0  0  0  0  0  0  0  0  0  0
   -0.7516    7.3978   -3.1370 H   0  0  0  0  0  0  0  0  0  0  0  0
   -2.3536    6.6540   -3.3576 H   0  0  0  0  0  0  0  0  0  0  0  0
   -0.2572    5.7920   -1.3134 H   0  0  0  0  0  0  0  0  0  0  0  0
   -0.6417    4.9399   -2.8281 H   0  0  0  0  0  0  0  0  0  0  0  0
   -2.3051    4.0986    1.6381 H   0  0  0  0  0  0  0  0  0  0  0  0
   -4.0796    3.8945    1.6327 H   0  0  0  0  0  0  0  0  0  0  0  0
   -3.9511    1.6906    2.4701 H   0  0  0  0  0  0  0  0  0  0  0  0
   -2.3721    2.2503    3.1078 H   0  0  0  0  0  0  0  0  0  0  0  0
   -2.0648   -0.0428   -1.3227 H   0  0  0  0  0  0  0  0  0  0  0  0
   -2.5928    1.3919   -2.2309 H   0  0  0  0  0  0  0  0  0  0  0  0
   -0.7027    2.6909   -1.2630 H   0  0  0  0  0  0  0  0  0  0  0  0
   -0.1296    1.2524   -2.1429 H   0  0  0  0  0  0  0  0  0  0  0  0
   -0.6808    0.1482    2.8015 H   0  0  0  0  0  0  0  0  0  0  0  0
   -0.3777    1.8165    3.3170 H   0  0  0  0  0  0  0  0  0  0  0  0
    1.4966   -0.2094    2.1959 H   0  0  0  0  0  0  0  0  0  0  0  0
    1.7673    1.0456    3.4280 H   0  0  0  0  0  0  0  0  0  0  0  0
    3.2511    2.6385    2.7432 H   0  0  0  0  0  0  0  0  0  0  0  0
    3.1984    4.2902   -1.2198 H   0  0  0  0  0  0  0  0  0  0  0  0
    1.2598    2.8915   -1.7330 H   0  0  0  0  0  0  0  0  0  0  0  0
    0.6586    3.6204   -0.2269 H   0  0  0  0  0  0  0  0  0  0  0  0
    1.9557    0.5888   -1.8173 H   0  0  0  0  0  0  0  0  0  0  0  0
    3.3429    1.0479   -0.8010 H   0  0  0  0  0  0  0  0  0  0  0  0
    2.3050   -0.3178   -0.3259 H   0  0  0  0  0  0  0  0  0  0  0  0
    5.1595    3.9590    1.7266 H   0  0  0  0  0  0  0  0  0  0  0  0
    6.3625    6.1249    1.1481 H   0  0  0  0  0  0  0  0  0  0  0  0
    7.2014    4.7333    0.4213 H   0  0  0  0  0  0  0  0  0  0  0  0
   -4.9000    1.2303    0.6612 H   0  0  0  0  0  0  0  0  0  0  0  0
   -4.7828    1.1033   -1.1103 H   0  0  0  0  0  0  0  0  0  0  0  0
   -4.1925   -0.2242   -0.0818 H   0  0  0  0  0  0  0  0  0  0  0  0
    8.1199    7.0534   -0.7810 O   0  5  0  0  0  0  0  0  0  0  0  0
  1  2  1  0  0  0  0
  1 34  1  0  0  0  0
  1 35  1  0  0  0  0
  1 36  1  0  0  0  0
  2  3  1  0  0  0  0
  2 37  1  0  0  0  0
  2 38  1  0  0  0  0
  3  4  2  0  0  0  0
  3  5  1  0  0  0  0
  5  6  1  0  0  0  0
  6  7  1  0  0  0  0
  6 12  1  0  0  0  0
  6  8  1  0  0  0  0
  8  9  1  0  0  0  0
  8 39  1  0  0  0  0
  8 40  1  0  0  0  0
  9 10  1  0  0  0  0
  9 41  1  0  0  0  0
  9 42  1  0  0  0  0
 10 11  1  0  0  0  0
 10 17  1  0  0  0  0
 10 12  1  0  0  0  0
 12 13  1  0  0  0  0
 12 33  1  0  0  0  0
 13 14  1  0  0  0  0
 13 43  1  0  0  0  0
 13 44  1  0  0  0  0
 14 15  1  0  0  0  0
 14 45  1  0  0  0  0
 14 46  1  0  0  0  0
 15 16  1  0  0  0  0
 15 26  1  0  0  0  0
 15 17  1  0  0  0  0
 17 18  1  0  0  0  0
 17 19  1  0  0  0  0
 19 20  1  0  0  0  0
 19 47  1  0  0  0  0
 19 48  1  0  0  0  0
 20 21  1  0  0  0  0
 20 49  1  0  0  0  0
 20 50  1  0  0  0  0
 21 26  1  0  0  0  0
 21 22  2  0  0  0  0
 22 23  1  0  0  0  0
 22 51  1  0  0  0  0
 23 24  2  0  0  0  0
 23 28  1  0  0  0  0
 24 25  1  0  0  0  0
 24 52  1  0  0  0  0
 25 26  1  0  0  0  0
 25 53  1  0  0  0  0
 25 54  1  0  0  0  0
 26 27  1  0  0  0  0
 27 55  1  0  0  0  0
 27 56  1  0  0  0  0
 27 57  1  0  0  0  0
 28 29  1  0  0  0  0
 28 58  1  0  0  0  0
 29 30  1  0  0  0  0
 30 31  1  0  0  0  0
 30 59  1  0  0  0  0
 30 60  1  0  0  0  0
 31 32  2  0  0  0  0
 31 64  1  0  0  0  0
 33 61  1  0  0  0  0
 33 62  1  0  0  0  0
 33 63  1  0  0  0  0
M  CHG  1  64  -1
M  END
$$$$
ZINC02185447
  -OEChem-08230709463D

 54 57  0     0  0  0  0  0  0999 V2000
   -8.8897    0.4360    2.2675 C   0  0  0  0  0  0  0  0  0  0  0  0
  -10.2078    0.2781    2.6102 C   0  0  0  0  0  0  0  0  0  0  0  0
  -10.6125    0.4595    3.9358 C   0  0  0  0  0  0  0  0  0  0  0  0
   -9.6732    0.7967    4.9145 C   0  0  0  0  0  0  0  0  0  0  0  0
   -8.3538    0.9504    4.5750 C   0  0  0  0  0  0  0  0  0  0  0  0
   -7.9473    0.7690    3.2477 C   0  0  0  0  0  0  0  0  0  0  0  0
   -6.5325    0.9341    2.8823 C   0  0  0  0  0  0  0  0  0  0  0  0
   -6.1536    0.7646    1.6432 N   0  0  0  0  0  0  0  0  0  0  0  0
   -4.8552    0.9161    1.3079 C   0  0  0  0  0  0  0  0  0  0  0  0
   -4.2452    0.7822    0.0549 C   0  0  0  0  0  0  0  0  0  0  0  0
   -2.8600    0.9921   -0.0440 C   0  0  0  0  0  0  0  0  0  0  0  0
   -2.2044    1.3136    1.1004 C   0  0  0  0  0  0  0  0  0  0  0  0
   -3.4654    1.3392    2.3463 S   0  0  0  0  0  0  0  0  0  0  0  0
   -0.7380    1.5843    1.2665 C   0  0  0  0  0  0  0  0  0  0  0  0
   -0.0127    1.0858    0.0080 C   0  0  0  0  0  0  0  0  0  0  0  0
   -0.7598    1.5963   -1.2275 C   0  0  0  0  0  0  0  0  0  0  0  0
   -2.0995    0.8720   -1.3624 C   0  0  0  0  0  0  0  0  0  0  0  0
   -5.0368    0.4303   -1.1308 C   0  0  0  0  0  0  0  0  0  0  0  0
   -5.1963   -0.7381   -1.4310 O   0  0  0  0  0  0  0  0  0  0  0  0
   -5.5868    1.4013   -1.8864 N   0  0  0  0  0  0  0  0  0  0  0  0
   -6.3766    1.0502   -3.0693 C   0  0  0  0  0  0  0  0  0  0  0  0
   -5.4432    0.8512   -4.2651 C   0  0  0  0  0  0  0  0  0  0  0  0
   -6.2680    0.4846   -5.5004 C   0  0  0  0  0  0  0  0  0  0  0  0
   -7.2562    1.6117   -5.8069 C   0  0  0  0  0  0  0  0  0  0  0  0
   -8.1896    1.8107   -4.6111 C   0  0  0  0  0  0  0  0  0  0  0  0
   -7.3648    2.1774   -3.3757 C   0  0  0  0  0  0  0  0  0  0  0  0
  -12.0336    0.2951    4.3025 C   0  0  0  0  0  0  0  0  0  0  0  0
  -12.3858    0.4531    5.4544 O   0  0  0  0  0  0  0  0  0  0  0  0
   -8.5780    0.2998    1.2425 H   0  0  0  0  0  0  0  0  0  0  0  0
  -10.9344    0.0175    1.8549 H   0  0  0  0  0  0  0  0  0  0  0  0
   -9.9870    0.9366    5.9384 H   0  0  0  0  0  0  0  0  0  0  0  0
   -7.6283    1.2117    5.3312 H   0  0  0  0  0  0  0  0  0  0  0  0
   -5.8065    1.1954    3.6380 H   0  0  0  0  0  0  0  0  0  0  0  0
   -0.3603    1.0555    2.1416 H   0  0  0  0  0  0  0  0  0  0  0  0
   -0.5737    2.6553    1.3849 H   0  0  0  0  0  0  0  0  0  0  0  0
    0.0021   -0.0041    0.0020 H   0  0  0  0  0  0  0  0  0  0  0  0
    1.0090    1.4654    0.0003 H   0  0  0  0  0  0  0  0  0  0  0  0
   -0.9358    2.6673   -1.1272 H   0  0  0  0  0  0  0  0  0  0  0  0
   -0.1580    1.4101   -2.1170 H   0  0  0  0  0  0  0  0  0  0  0  0
   -2.6821    1.3279   -2.1629 H   0  0  0  0  0  0  0  0  0  0  0  0
   -1.9248   -0.1793   -1.5910 H   0  0  0  0  0  0  0  0  0  0  0  0
   -5.4598    2.3327   -1.6470 H   0  0  0  0  0  0  0  0  0  0  0  0
   -6.9252    0.1278   -2.8791 H   0  0  0  0  0  0  0  0  0  0  0  0
   -4.8945    1.7737   -4.4552 H   0  0  0  0  0  0  0  0  0  0  0  0
   -4.7392    0.0482   -4.0468 H   0  0  0  0  0  0  0  0  0  0  0  0
   -6.8166   -0.4379   -5.3103 H   0  0  0  0  0  0  0  0  0  0  0  0
   -5.6030    0.3428   -6.3524 H   0  0  0  0  0  0  0  0  0  0  0  0
   -7.8438    1.3505   -6.6870 H   0  0  0  0  0  0  0  0  0  0  0  0
   -6.7075    2.5342   -5.9970 H   0  0  0  0  0  0  0  0  0  0  0  0
   -8.7382    0.8882   -4.4209 H   0  0  0  0  0  0  0  0  0  0  0  0
   -8.8936    2.6137   -4.8294 H   0  0  0  0  0  0  0  0  0  0  0  0
   -8.0298    2.3192   -2.5238 H   0  0  0  0  0  0  0  0  0  0  0  0
   -6.8162    3.0999   -3.5658 H   0  0  0  0  0  0  0  0  0  0  0  0
  -12.9394   -0.0299    3.3596 O   0  5  0  0  0  0  0  0  0  0  0  0
  1  6  2  0  0  0  0
  1  2  1  0  0  0  0
  1 29  1  0  0  0  0
  2  3  2  0  0  0  0
  2 30  1  0  0  0  0
  3  4  1  0  0  0  0
  3 27  1  0  0  0  0
  4  5  2  0  0  0  0
  4 31  1  0  0  0  0
  5  6  1  0  0  0  0
  5 32  1  0  0  0  0
  6  7  1  0  0  0  0
  7  8  2  0  0  0  0
  7 33  1  0  0  0  0
  8  9  1  0  0  0  0
  9 13  1  0  0  0  0
  9 10  2  0  0  0  0
 10 11  1  0  0  0  0
 10 18  1  0  0  0  0
 11 17  1  0  0  0  0
 11 12  2  0  0  0  0
 12 13  1  0  0  0  0
 12 14  1  0  0  0  0
 14 15  1  0  0  0  0
 14 34  1  0  0  0  0
 14 35  1  0  0  0  0
 15 16  1  0  0  0  0
 15 36  1  0  0  0  0
 15 37  1  0  0  0  0
 16 17  1  0  0  0  0
 16 38  1  0  0  0  0
 16 39  1  0  0  0  0
 17 40  1  0  0  0  0
 17 41  1  0  0  0  0
 18 19  2  0  0  0  0
 18 20  1  0  0  0  0
 20 21  1  0  0  0  0
 20 42  1  0  0  0  0
 21 26  1  0  0  0  0
 21 22  1  0  0  0  0
 21 43  1  0  0  0  0
 22 23  1  0  0  0  0
 22 44  1  0  0  0  0
 22 45  1  0  0  0  0
 23 24  1  0  0  0  0
 23 46  1  0  0  0  0
 23 47  1  0  0  0  0
 24 25  1  0  0  0  0
 24 48  1  0  0  0  0
 24 49  1  0  0  0  0
 25 26  1  0  0  0  0
 25 50  1  0  0  0  0
 25 51  1  0  0  0  0
 26 52  1  0  0  0  0
 26 53  1  0  0  0  0
 27 28  2  0  0  0  0
 27 54  1  0  0  0  0
M  CHG  1  54  -1
M  END
$$$$
ZINC02193103
  -OEChem-08230709463D

 68 71  0     1  0  0  0  0  0999 V2000
    2.5547    2.3102   -4.4307 C   0  0  0  0  0  0  0  0  0  0  0  0
    1.5891    1.4840   -3.5787 C   0  0  2  0  0  0  0  0  0  0  0  0
    2.0693    1.2226   -2.6357 H   0  0  0  0  0  0  0  0  0  0  0  0
    1.2114    0.2060   -4.3302 C   0  0  0  0  0  0  0  0  0  0  0  0
    2.4400   -0.6980   -4.4488 C   0  0  0  0  0  0  0  0  0  0  0  0
    2.0679   -1.9568   -5.1890 C   0  0  0  0  0  0  0  0  0  0  0  0
    0.9361   -2.1147   -5.5815 O   0  0  0  0  0  0  0  0  0  0  0  0
    0.3328    2.2993   -3.2999 C   0  0  2  0  0  0  0  0  0  0  0  0
   -0.3322    2.2304   -4.1780 H   0  0  0  0  0  0  0  0  0  0  0  0
    0.6858    3.7838   -3.0766 C   0  0  0  0  0  0  0  0  0  0  0  0
   -0.2047    4.2531   -1.9085 C   0  0  0  0  0  0  0  0  0  0  0  0
   -0.4129    2.9804   -1.0434 C   0  0  1  0  0  0  0  0  0  0  0  0
   -1.3944    3.0367   -0.5221 H   0  0  0  0  0  0  0  0  0  0  0  0
   -0.4370    1.8395   -2.0648 C   0  0  2  0  0  0  0  0  0  0  0  0
   -0.0499    0.4945   -1.5154 C   0  0  0  0  0  0  0  0  0  0  0  0
    1.1441    0.5097   -0.5707 C   0  0  0  0  0  0  0  0  0  0  0  0
    0.8981    1.5098    0.5537 C   0  0  2  0  0  0  0  0  0  0  0  0
   -0.0484    1.2232    1.0554 H   0  0  0  0  0  0  0  0  0  0  0  0
    0.7051    2.9052   -0.0198 C   0  0  1  0  0  0  0  0  0  0  0  0
    0.4097    3.5684    0.8203 H   0  0  0  0  0  0  0  0  0  0  0  0
    2.0287    3.4434   -0.5551 C   0  0  0  0  0  0  0  0  0  0  0  0
    2.9863    3.5874    0.6352 C   0  0  0  0  0  0  0  0  0  0  0  0
    3.2687    2.2057    1.2233 C   0  0  1  0  0  0  0  0  0  0  0  0
    3.8539    2.3678    2.1525 H   0  0  0  0  0  0  0  0  0  0  0  0
    2.0020    1.4649    1.6023 C   0  0  2  0  0  0  0  0  0  0  0  0
    2.2885    0.0204    2.0167 C   0  0  0  0  0  0  0  0  0  0  0  0
    3.2398   -0.7159    1.0895 C   0  0  0  0  0  0  0  0  0  0  0  0
    4.5298    0.0827    0.8930 C   0  0  1  0  0  0  0  0  0  0  0  0
    5.1969   -0.4621    0.2257 H   0  0  0  0  0  0  0  0  0  0  0  0
    4.1621    1.4274    0.2627 C   0  0  0  0  0  0  0  0  0  0  0  0
    5.1811    0.2953    2.1701 O   0  0  0  0  0  0  0  0  0  0  0  0
    6.0645   -0.6346    2.5660 C   0  0  0  0  0  0  0  0  0  0  0  0
    6.6389   -0.5114    3.6218 O   0  0  0  0  0  0  0  0  0  0  0  0
    1.4390    2.1547    2.8769 C   0  0  0  0  0  0  0  0  0  0  0  0
   -1.9185    1.6975   -2.5136 C   0  0  0  0  0  0  0  0  0  0  0  0
    2.8238    3.2207   -3.8953 H   0  0  0  0  0  0  0  0  0  0  0  0
    3.4536    1.7269   -4.6302 H   0  0  0  0  0  0  0  0  0  0  0  0
    2.0745    2.5717   -5.3737 H   0  0  0  0  0  0  0  0  0  0  0  0
    0.4263   -0.3177   -3.7848 H   0  0  0  0  0  0  0  0  0  0  0  0
    0.8520    0.4632   -5.3266 H   0  0  0  0  0  0  0  0  0  0  0  0
    3.2251   -0.1744   -4.9942 H   0  0  0  0  0  0  0  0  0  0  0  0
    2.7994   -0.9552   -3.4524 H   0  0  0  0  0  0  0  0  0  0  0  0
    0.4546    4.3587   -3.9757 H   0  0  0  0  0  0  0  0  0  0  0  0
    1.7392    3.8905   -2.8329 H   0  0  0  0  0  0  0  0  0  0  0  0
   -1.1646    4.6172   -2.2888 H   0  0  0  0  0  0  0  0  0  0  0  0
    0.2787    5.0441   -1.3377 H   0  0  0  0  0  0  0  0  0  0  0  0
    0.1219   -0.2179   -2.3215 H   0  0  0  0  0  0  0  0  0  0  0  0
   -0.9150    0.1059   -0.9477 H   0  0  0  0  0  0  0  0  0  0  0  0
    2.0607    0.7308   -1.0991 H   0  0  0  0  0  0  0  0  0  0  0  0
    1.2155   -0.4976   -0.1290 H   0  0  0  0  0  0  0  0  0  0  0  0
    2.4549    2.7532   -1.2769 H   0  0  0  0  0  0  0  0  0  0  0  0
    1.8905    4.4228   -1.0061 H   0  0  0  0  0  0  0  0  0  0  0  0
    2.5399    4.2344    1.3863 H   0  0  0  0  0  0  0  0  0  0  0  0
    3.9208    4.0312    0.2866 H   0  0  0  0  0  0  0  0  0  0  0  0
    2.7092    0.0280    3.0309 H   0  0  0  0  0  0  0  0  0  0  0  0
    1.3369   -0.5247    2.0654 H   0  0  0  0  0  0  0  0  0  0  0  0
    3.4999   -1.6850    1.5377 H   0  0  0  0  0  0  0  0  0  0  0  0
    2.7896   -0.9110    0.1204 H   0  0  0  0  0  0  0  0  0  0  0  0
    5.0788    1.9964    0.0803 H   0  0  0  0  0  0  0  0  0  0  0  0
    3.6579    1.2661   -0.6852 H   0  0  0  0  0  0  0  0  0  0  0  0
    6.2617   -1.4928    1.9408 H   0  0  0  0  0  0  0  0  0  0  0  0
    0.5559    1.6164    3.2213 H   0  0  0  0  0  0  0  0  0  0  0  0
    2.1976    2.1467    3.6596 H   0  0  0  0  0  0  0  0  0  0  0  0
    1.1687    3.1845    2.6434 H   0  0  0  0  0  0  0  0  0  0  0  0
   -2.5357    1.4393   -1.6530 H   0  0  0  0  0  0  0  0  0  0  0  0
   -2.2620    2.6414   -2.9368 H   0  0  0  0  0  0  0  0  0  0  0  0
   -1.9967    0.9123   -3.2655 H   0  0  0  0  0  0  0  0  0  0  0  0
    2.9938   -2.9027   -5.4123 O   0  5  0  0  0  0  0  0  0  0  0  0
  1  2  1  0  0  0  0
  1 36  1  0  0  0  0
  1 37  1  0  0  0  0
  1 38  1  0  0  0  0
  2  3  1  0  0  0  0
  2  4  1  0  0  0  0
  2  8  1  0  0  0  0
  4  5  1  0  0  0  0
  4 39  1  0  0  0  0
  4 40  1  0  0  0  0
  5  6  1  0  0  0  0
  5 41  1  0  0  0  0
  5 42  1  0  0  0  0
  6  7  2  0  0  0  0
  6 68  1  0  0  0  0
  8  9  1  0  0  0  0
  8 14  1  0  0  0  0
  8 10  1  0  0  0  0
 10 11  1  0  0  0  0
 10 43  1  0  0  0  0
 10 44  1  0  0  0  0
 11 12  1  0  0  0  0
 11 45  1  0  0  0  0
 11 46  1  0  0  0  0
 12 13  1  0  0  0  0
 12 19  1  0  0  0  0
 12 14  1  0  0  0  0
 14 15  1  0  0  0  0
 14 35  1  0  0  0  0
 15 16  1  0  0  0  0
 15 47  1  0  0  0  0
 15 48  1  0  0  0  0
 16 17  1  0  0  0  0
 16 49  1  0  0  0  0
 16 50  1  0  0  0  0
 17 18  1  0  0  0  0
 17 25  1  0  0  0  0
 17 19  1  0  0  0  0
 19 20  1  0  0  0  0
 19 21  1  0  0  0  0
 21 22  1  0  0  0  0
 21 51  1  0  0  0  0
 21 52  1  0  0  0  0
 22 23  1  0  0  0  0
 22 53  1  0  0  0  0
 22 54  1  0  0  0  0
 23 24  1  0  0  0  0
 23 30  1  0  0  0  0
 23 25  1  0  0  0  0
 25 26  1  0  0  0  0
 25 34  1  0  0  0  0
 26 27  1  0  0  0  0
 26 55  1  0  0  0  0
 26 56  1  0  0  0  0
 27 28  1  0  0  0  0
 27 57  1  0  0  0  0
 27 58  1  0  0  0  0
 28 29  1  0  0  0  0
 28 30  1  0  0  0  0
 28 31  1  0  0  0  0
 30 59  1  0  0  0  0
 30 60  1  0  0  0  0
 31 32  1  0  0  0  0
 32 33  2  0  0  0  0
 32 61  1  0  0  0  0
 34 62  1  0  0  0  0
 34 63  1  0  0  0  0
 34 64  1  0  0  0  0
 35 65  1  0  0  0  0
 35 66  1  0  0  0  0
 35 67  1  0  0  0  0
M  CHG  1  68  -1
M  END
$$$$
ZINC02208173
  -OEChem-08230709463D

 55 56  0     1  0  0  0  0  0999 V2000
   -3.3251   -1.1518    3.9927 C   0  0  0  0  0  0  0  0  0  0  0  0
   -3.7049   -1.6136    2.5843 C   0  0  0  0  0  0  0  0  0  0  0  0
   -2.4731   -2.1973    1.8894 C   0  0  0  0  0  0  0  0  0  0  0  0
   -2.8530   -2.6591    0.4811 C   0  0  0  0  0  0  0  0  0  0  0  0
   -1.6212   -3.2428   -0.2138 C   0  0  1  0  0  0  0  0  0  0  0  0
   -2.0010   -3.7045   -1.6221 C   0  0  0  0  0  0  0  0  0  0  0  0
   -0.7692   -4.2882   -2.3170 C   0  0  0  0  0  0  0  0  0  0  0  0
   -1.1433   -4.7431   -3.7041 C   0  0  0  0  0  0  0  0  0  0  0  0
   -2.2787   -4.6137   -4.0967 O   0  0  0  0  0  0  0  0  0  0  0  0
   -0.5481   -2.1885   -0.3032 C   0  0  0  0  0  0  0  0  0  0  0  0
    0.7312   -2.5250   -0.5955 C   0  0  0  0  0  0  0  0  0  0  0  0
    1.5134   -0.9188   -0.5623 S   0  0  0  0  0  0  0  0  0  0  0  0
    0.1005    0.0130   -0.1738 C   0  0  0  0  0  0  0  0  0  0  0  0
   -0.8318   -0.9172   -0.0923 N   0  0  0  0  0  0  0  0  0  0  0  0
   -0.0167    1.3827    0.0096 N   0  0  0  0  0  0  0  0  0  0  0  0
    1.1248    2.1887    0.0033 C   0  0  0  0  0  0  0  0  0  0  0  0
    2.3244    1.7009    0.5063 C   0  0  0  0  0  0  0  0  0  0  0  0
    3.4517    2.4985    0.4941 C   0  0  0  0  0  0  0  0  0  0  0  0
    3.3849    3.7852   -0.0084 C   0  0  0  0  0  0  0  0  0  0  0  0
    2.1911    4.2758   -0.5050 C   0  0  0  0  0  0  0  0  0  0  0  0
    1.0612    3.4818   -0.5007 C   0  0  0  0  0  0  0  0  0  0  0  0
    4.6156    4.6548   -0.0143 C   0  0  0  0  0  0  0  0  0  0  0  0
   -1.1069   -4.4171    0.5783 C   0  0  0  0  0  0  0  0  0  0  0  0
    0.0159   -4.3997    1.0245 O   0  0  0  0  0  0  0  0  0  0  0  0
   -1.8960   -5.4824    0.7882 O   0  0  0  0  0  0  0  0  0  0  0  0
   -1.3346   -6.5769    1.5597 C   0  0  0  0  0  0  0  0  0  0  0  0
   -2.3735   -7.6922    1.6933 C   0  0  0  0  0  0  0  0  0  0  0  0
   -2.9531   -2.0012    4.5656 H   0  0  0  0  0  0  0  0  0  0  0  0
   -2.5489   -0.3892    3.9280 H   0  0  0  0  0  0  0  0  0  0  0  0
   -4.2027   -0.7360    4.4877 H   0  0  0  0  0  0  0  0  0  0  0  0
   -4.0769   -0.7642    2.0114 H   0  0  0  0  0  0  0  0  0  0  0  0
   -4.4811   -2.3761    2.6490 H   0  0  0  0  0  0  0  0  0  0  0  0
   -2.1011   -3.0467    2.4624 H   0  0  0  0  0  0  0  0  0  0  0  0
   -1.6970   -1.4347    1.8248 H   0  0  0  0  0  0  0  0  0  0  0  0
   -3.2249   -1.8097   -0.0918 H   0  0  0  0  0  0  0  0  0  0  0  0
   -3.6291   -3.4216    0.5458 H   0  0  0  0  0  0  0  0  0  0  0  0
   -2.7771   -4.4671   -1.5574 H   0  0  0  0  0  0  0  0  0  0  0  0
   -2.3730   -2.8551   -2.1950 H   0  0  0  0  0  0  0  0  0  0  0  0
    0.0070   -3.5257   -2.3816 H   0  0  0  0  0  0  0  0  0  0  0  0
   -0.3972   -5.1376   -1.7441 H   0  0  0  0  0  0  0  0  0  0  0  0
    1.1599   -3.4961   -0.7943 H   0  0  0  0  0  0  0  0  0  0  0  0
   -0.8915    1.7816    0.1384 H   0  0  0  0  0  0  0  0  0  0  0  0
    2.3763    0.6975    0.9025 H   0  0  0  0  0  0  0  0  0  0  0  0
    4.3856    2.1184    0.8812 H   0  0  0  0  0  0  0  0  0  0  0  0
    2.1425    5.2810   -0.8970 H   0  0  0  0  0  0  0  0  0  0  0  0
    0.1294    3.8654   -0.8890 H   0  0  0  0  0  0  0  0  0  0  0  0
    4.6683    5.2162    0.9185 H   0  0  0  0  0  0  0  0  0  0  0  0
    5.5025    4.0286   -0.1120 H   0  0  0  0  0  0  0  0  0  0  0  0
    4.5663    5.3485   -0.8536 H   0  0  0  0  0  0  0  0  0  0  0  0
   -0.4504   -6.9629    1.0525 H   0  0  0  0  0  0  0  0  0  0  0  0
   -1.0573   -6.2181    2.5509 H   0  0  0  0  0  0  0  0  0  0  0  0
   -1.9520   -8.5138    2.2724 H   0  0  0  0  0  0  0  0  0  0  0  0
   -3.2577   -7.3063    2.2005 H   0  0  0  0  0  0  0  0  0  0  0  0
   -2.6507   -8.0511    0.7021 H   0  0  0  0  0  0  0  0  0  0  0  0
   -0.2152   -5.2920   -4.5036 O   0  5  0  0  0  0  0  0  0  0  0  0
  1  2  1  0  0  0  0
  1 28  1  0  0  0  0
  1 29  1  0  0  0  0
  1 30  1  0  0  0  0
  2  3  1  0  0  0  0
  2 31  1  0  0  0  0
  2 32  1  0  0  0  0
  3  4  1  0  0  0  0
  3 33  1  0  0  0  0
  3 34  1  0  0  0  0
  4  5  1  0  0  0  0
  4 35  1  0  0  0  0
  4 36  1  0  0  0  0
  5  6  1  0  0  0  0
  5 10  1  0  0  0  0
  5 23  1  0  0  0  0
  6  7  1  0  0  0  0
  6 37  1  0  0  0  0
  6 38  1  0  0  0  0
  7  8  1  0  0  0  0
  7 39  1  0  0  0  0
  7 40  1  0  0  0  0
  8  9  2  0  0  0  0
  8 55  1  0  0  0  0
 10 14  1  0  0  0  0
 10 11  2  0  0  0  0
 11 12  1  0  0  0  0
 11 41  1  0  0  0  0
 12 13  1  0  0  0  0
 13 14  2  0  0  0  0
 13 15  1  0  0  0  0
 15 16  1  0  0  0  0
 15 42  1  0  0  0  0
 16 21  2  0  0  0  0
 16 17  1  0  0  0  0
 17 18  2  0  0  0  0
 17 43  1  0  0  0  0
 18 19  1  0  0  0  0
 18 44  1  0  0  0  0
 19 20  2  0  0  0  0
 19 22  1  0  0  0  0
 20 21  1  0  0  0  0
 20 45  1  0  0  0  0
 21 46  1  0  0  0  0
 22 47  1  0  0  0  0
 22 48  1  0  0  0  0
 22 49  1  0  0  0  0
 23 24  2  0  0  0  0
 23 25  1  0  0  0  0
 25 26  1  0  0  0  0
 26 27  1  0  0  0  0
 26 50  1  0  0  0  0
 26 51  1  0  0  0  0
 27 52  1  0  0  0  0
 27 53  1  0  0  0  0
 27 54  1  0  0  0  0
M  CHG  1  55  -1
M  END
$$$$
ZINC02209655
  -OEChem-08230709463D

 52 53  0     0  0  0  0  0  0999 V2000
    0.3381    4.0860    1.2445 C   0  0  0  0  0  0  0  0  0  0  0  0
    1.0546    3.5978   -0.0161 C   0  0  0  0  0  0  0  0  0  0  0  0
    2.4834    4.1447   -0.0348 C   0  0  0  0  0  0  0  0  0  0  0  0
    0.3031    4.0921   -1.2537 C   0  0  0  0  0  0  0  0  0  0  0  0
    1.0933    2.0913   -0.0204 C   0  0  0  0  0  0  0  0  0  0  0  0
   -0.0856    1.3695   -0.0056 C   0  0  0  0  0  0  0  0  0  0  0  0
   -0.0501   -0.0123   -0.0099 C   0  0  0  0  0  0  0  0  0  0  0  0
    1.1643   -0.6725   -0.0290 C   0  0  0  0  0  0  0  0  0  0  0  0
    2.3432    0.0492   -0.0443 C   0  0  0  0  0  0  0  0  0  0  0  0
    2.3077    1.4311   -0.0409 C   0  0  0  0  0  0  0  0  0  0  0  0
    1.2030   -2.1790   -0.0327 C   0  0  0  0  0  0  0  0  0  0  0  0
    1.1955   -2.6600   -1.4027 O   0  0  0  0  0  0  0  0  0  0  0  0
    1.2272   -3.9940   -1.5824 C   0  0  0  0  0  0  0  0  0  0  0  0
    1.2602   -4.7359   -0.6207 O   0  0  0  0  0  0  0  0  0  0  0  0
    1.2222   -4.5064   -2.8290 N   0  0  0  0  0  0  0  0  0  0  0  0
    1.3496   -5.8819   -3.0178 C   0  0  0  0  0  0  0  0  0  0  0  0
    0.7804   -6.7635   -2.1119 C   0  0  0  0  0  0  0  0  0  0  0  0
    0.9075   -8.1302   -2.2994 C   0  0  0  0  0  0  0  0  0  0  0  0
    1.6082   -8.6274   -3.3998 C   0  0  0  0  0  0  0  0  0  0  0  0
    2.1782   -7.7606   -4.3079 C   0  0  0  0  0  0  0  0  0  0  0  0
    2.0496   -6.3780   -4.1290 C   0  0  0  0  0  0  0  0  0  0  0  0
    2.6512   -5.4488   -5.0980 C   0  0  0  0  0  0  0  0  0  0  0  0
    2.6265   -4.2518   -4.8881 O   0  0  0  0  0  0  0  0  0  0  0  0
    1.7292   -9.9711   -3.5764 O   0  0  0  0  0  0  0  0  0  0  0  0
    2.4590  -10.4116   -4.7233 C   0  0  0  0  0  0  0  0  0  0  0  0
    0.3486   -8.9897   -1.4091 O   0  0  0  0  0  0  0  0  0  0  0  0
   -0.3540   -8.4146   -0.3056 C   0  0  0  0  0  0  0  0  0  0  0  0
    0.8735    3.7338    2.1262 H   0  0  0  0  0  0  0  0  0  0  0  0
    0.3101    5.1756    1.2476 H   0  0  0  0  0  0  0  0  0  0  0  0
   -0.6798    3.6963    1.2578 H   0  0  0  0  0  0  0  0  0  0  0  0
    2.9939    3.7969   -0.9329 H   0  0  0  0  0  0  0  0  0  0  0  0
    2.4554    5.2343   -0.0317 H   0  0  0  0  0  0  0  0  0  0  0  0
    3.0188    3.7925    0.8469 H   0  0  0  0  0  0  0  0  0  0  0  0
   -0.7148    3.7025   -1.2404 H   0  0  0  0  0  0  0  0  0  0  0  0
    0.2751    5.1818   -1.2506 H   0  0  0  0  0  0  0  0  0  0  0  0
    0.8136    3.7443   -2.1518 H   0  0  0  0  0  0  0  0  0  0  0  0
   -1.0344    1.8853    0.0048 H   0  0  0  0  0  0  0  0  0  0  0  0
   -0.9711   -0.5762    0.0020 H   0  0  0  0  0  0  0  0  0  0  0  0
    3.2920   -0.4665   -0.0585 H   0  0  0  0  0  0  0  0  0  0  0  0
    3.2287    1.9950   -0.0524 H   0  0  0  0  0  0  0  0  0  0  0  0
    2.1094   -2.5204    0.4672 H   0  0  0  0  0  0  0  0  0  0  0  0
    0.3303   -2.5662    0.4931 H   0  0  0  0  0  0  0  0  0  0  0  0
    1.1301   -3.9182   -3.5947 H   0  0  0  0  0  0  0  0  0  0  0  0
    0.2376   -6.3844   -1.2587 H   0  0  0  0  0  0  0  0  0  0  0  0
    2.7198   -8.1477   -5.1584 H   0  0  0  0  0  0  0  0  0  0  0  0
    2.4797  -11.5012   -4.7443 H   0  0  0  0  0  0  0  0  0  0  0  0
    1.9752  -10.0399   -5.6265 H   0  0  0  0  0  0  0  0  0  0  0  0
    3.4787  -10.0297   -4.6738 H   0  0  0  0  0  0  0  0  0  0  0  0
    0.3278   -7.7935    0.2753 H   0  0  0  0  0  0  0  0  0  0  0  0
   -1.1758   -7.8026   -0.6773 H   0  0  0  0  0  0  0  0  0  0  0  0
   -0.7499   -9.2092    0.3269 H   0  0  0  0  0  0  0  0  0  0  0  0
    3.2299   -5.9248   -6.2185 O   0  5  0  0  0  0  0  0  0  0  0  0
  1  2  1  0  0  0  0
  1 28  1  0  0  0  0
  1 29  1  0  0  0  0
  1 30  1  0  0  0  0
  2  3  1  0  0  0  0
  2  4  1  0  0  0  0
  2  5  1  0  0  0  0
  3 31  1  0  0  0  0
  3 32  1  0  0  0  0
  3 33  1  0  0  0  0
  4 34  1  0  0  0  0
  4 35  1  0  0  0  0
  4 36  1  0  0  0  0
  5 10  2  0  0  0  0
  5  6  1  0  0  0  0
  6  7  2  0  0  0  0
  6 37  1  0  0  0  0
  7  8  1  0  0  0  0
  7 38  1  0  0  0  0
  8  9  2  0  0  0  0
  8 11  1  0  0  0  0
  9 10  1  0  0  0  0
  9 39  1  0  0  0  0
 10 40  1  0  0  0  0
 11 12  1  0  0  0  0
 11 41  1  0  0  0  0
 11 42  1  0  0  0  0
 12 13  1  0  0  0  0
 13 14  2  0  0  0  0
 13 15  1  0  0  0  0
 15 16  1  0  0  0  0
 15 43  1  0  0  0  0
 16 21  2  0  0  0  0
 16 17  1  0  0  0  0
 17 18  2  0  0  0  0
 17 44  1  0  0  0  0
 18 19  1  0  0  0  0
 18 26  1  0  0  0  0
 19 20  2  0  0  0  0
 19 24  1  0  0  0  0
 20 21  1  0  0  0  0
 20 45  1  0  0  0  0
 21 22  1  0  0  0  0
 22 23  2  0  0  0  0
 22 52  1  0  0  0  0
 24 25  1  0  0  0  0
 25 46  1  0  0  0  0
 25 47  1  0  0  0  0
 25 48  1  0  0  0  0
 26 27  1  0  0  0  0
 27 49  1  0  0  0  0
 27 50  1  0  0  0  0
 27 51  1  0  0  0  0
M  CHG  1  52  -1
M  END
$$$$
ZINC02212374
  -OEChem-08230709463D

 51 53  0     0  0  0  0  0  0999 V2000
   -2.4126    0.9647    2.5122 C   0  0  0  0  0  0  0  0  0  0  0  0
   -2.9675    0.4891    1.1942 C   0  0  0  0  0  0  0  0  0  0  0  0
   -4.0672   -0.4768    1.1458 C   0  0  0  0  0  0  0  0  0  0  0  0
   -4.6327   -0.9844    2.3212 C   0  0  0  0  0  0  0  0  0  0  0  0
   -5.6564   -1.8838    2.2477 C   0  0  0  0  0  0  0  0  0  0  0  0
   -6.1431   -2.2997    1.0097 C   0  0  0  0  0  0  0  0  0  0  0  0
   -5.5955   -1.8073   -0.1635 C   0  0  0  0  0  0  0  0  0  0  0  0
   -4.5543   -0.8929   -0.1071 C   0  0  0  0  0  0  0  0  0  0  0  0
   -4.0069   -0.3998   -1.2387 O   0  0  0  0  0  0  0  0  0  0  0  0
   -3.0022    0.4894   -1.2011 C   0  0  0  0  0  0  0  0  0  0  0  0
   -2.5428    0.9103   -2.2477 O   0  0  0  0  0  0  0  0  0  0  0  0
   -2.4615    0.9450    0.0189 C   0  0  0  0  0  0  0  0  0  0  0  0
   -1.3295    1.9397    0.0189 C   0  0  0  0  0  0  0  0  0  0  0  0
   -0.0143    1.2041    0.0087 C   0  0  0  0  0  0  0  0  0  0  0  0
    0.0021   -0.0041    0.0020 O   0  0  0  0  0  0  0  0  0  0  0  0
   -7.1619   -3.1950    0.9532 O   0  0  0  0  0  0  0  0  0  0  0  0
   -7.6828   -3.6645    2.1983 C   0  0  0  0  0  0  0  0  0  0  0  0
   -8.7988   -4.6434    1.9388 C   0  0  0  0  0  0  0  0  0  0  0  0
  -10.1018   -4.1940    1.8337 C   0  0  0  0  0  0  0  0  0  0  0  0
  -11.1250   -5.0914    1.5913 C   0  0  0  0  0  0  0  0  0  0  0  0
  -10.8463   -6.4393    1.4635 C   0  0  0  0  0  0  0  0  0  0  0  0
   -9.5438   -6.8893    1.5733 C   0  0  0  0  0  0  0  0  0  0  0  0
   -8.5201   -5.9914    1.8114 C   0  0  0  0  0  0  0  0  0  0  0  0
  -11.9623   -7.4182    1.2039 C   0  0  0  0  0  0  0  0  0  0  0  0
  -12.0190   -8.4403    2.3411 C   0  0  0  0  0  0  0  0  0  0  0  0
  -13.2926   -6.6663    1.1272 C   0  0  0  0  0  0  0  0  0  0  0  0
  -11.7084   -8.1418   -0.1200 C   0  0  0  0  0  0  0  0  0  0  0  0
   -2.9575    1.8511    2.8371 H   0  0  0  0  0  0  0  0  0  0  0  0
   -2.5221    0.1773    3.2579 H   0  0  0  0  0  0  0  0  0  0  0  0
   -1.3571    1.2098    2.3947 H   0  0  0  0  0  0  0  0  0  0  0  0
   -4.2599   -0.6656    3.2834 H   0  0  0  0  0  0  0  0  0  0  0  0
   -6.0927   -2.2754    3.1547 H   0  0  0  0  0  0  0  0  0  0  0  0
   -5.9779   -2.1346   -1.1190 H   0  0  0  0  0  0  0  0  0  0  0  0
   -1.3915    2.5607    0.9126 H   0  0  0  0  0  0  0  0  0  0  0  0
   -1.4000    2.5704   -0.8673 H   0  0  0  0  0  0  0  0  0  0  0  0
   -6.8902   -4.1579    2.7608 H   0  0  0  0  0  0  0  0  0  0  0  0
   -8.0655   -2.8212    2.7732 H   0  0  0  0  0  0  0  0  0  0  0  0
  -10.3201   -3.1414    1.9377 H   0  0  0  0  0  0  0  0  0  0  0  0
  -12.1425   -4.7398    1.5052 H   0  0  0  0  0  0  0  0  0  0  0  0
   -9.3261   -7.9424    1.4734 H   0  0  0  0  0  0  0  0  0  0  0  0
   -7.5026   -6.3429    1.8975 H   0  0  0  0  0  0  0  0  0  0  0  0
  -12.1999   -7.9247    3.2843 H   0  0  0  0  0  0  0  0  0  0  0  0
  -12.8262   -9.1483    2.1533 H   0  0  0  0  0  0  0  0  0  0  0  0
  -11.0712   -8.9759    2.3957 H   0  0  0  0  0  0  0  0  0  0  0  0
  -13.2522   -5.9382    0.3171 H   0  0  0  0  0  0  0  0  0  0  0  0
  -14.0998   -7.3743    0.9395 H   0  0  0  0  0  0  0  0  0  0  0  0
  -13.4735   -6.1508    2.0704 H   0  0  0  0  0  0  0  0  0  0  0  0
  -10.7606   -8.6774   -0.0653 H   0  0  0  0  0  0  0  0  0  0  0  0
  -12.5156   -8.8498   -0.3077 H   0  0  0  0  0  0  0  0  0  0  0  0
  -11.6680   -7.4137   -0.9301 H   0  0  0  0  0  0  0  0  0  0  0  0
    1.1389    1.8910    0.0013 O   0  5  0  0  0  0  0  0  0  0  0  0
  1  2  1  0  0  0  0
  1 28  1  0  0  0  0
  1 29  1  0  0  0  0
  1 30  1  0  0  0  0
  2 12  2  0  0  0  0
  2  3  1  0  0  0  0
  3  8  2  0  0  0  0
  3  4  1  0  0  0  0
  4  5  2  0  0  0  0
  4 31  1  0  0  0  0
  5  6  1  0  0  0  0
  5 32  1  0  0  0  0
  6  7  2  0  0  0  0
  6 16  1  0  0  0  0
  7  8  1  0  0  0  0
  7 33  1  0  0  0  0
  8  9  1  0  0  0  0
  9 10  1  0  0  0  0
 10 11  2  0  0  0  0
 10 12  1  0  0  0  0
 12 13  1  0  0  0  0
 13 14  1  0  0  0  0
 13 34  1  0  0  0  0
 13 35  1  0  0  0  0
 14 15  2  0  0  0  0
 14 51  1  0  0  0  0
 16 17  1  0  0  0  0
 17 18  1  0  0  0  0
 17 36  1  0  0  0  0
 17 37  1  0  0  0  0
 18 23  2  0  0  0  0
 18 19  1  0  0  0  0
 19 20  2  0  0  0  0
 19 38  1  0  0  0  0
 20 21  1  0  0  0  0
 20 39  1  0  0  0  0
 21 22  2  0  0  0  0
 21 24  1  0  0  0  0
 22 23  1  0  0  0  0
 22 40  1  0  0  0  0
 23 41  1  0  0  0  0
 24 25  1  0  0  0  0
 24 26  1  0  0  0  0
 24 27  1  0  0  0  0
 25 42  1  0  0  0  0
 25 43  1  0  0  0  0
 25 44  1  0  0  0  0
 26 45  1  0  0  0  0
 26 46  1  0  0  0  0
 26 47  1  0  0  0  0
 27 48  1  0  0  0  0
 27 49  1  0  0  0  0
 27 50  1  0  0  0  0
M  CHG  1  51  -1
M  END
$$$$
ZINC02257603
  -OEChem-08230709463D

 50 52  0     0  0  0  0  0  0999 V2000
    3.7281    4.0372    1.7348 C   0  0  0  0  0  0  0  0  0  0  0  0
    2.7932    2.8851    1.3613 C   0  0  0  0  0  0  0  0  0  0  0  0
    1.4403    3.3897    1.2084 O   0  0  0  0  0  0  0  0  0  0  0  0
    0.4877    2.4958    0.8779 C   0  0  0  0  0  0  0  0  0  0  0  0
    0.7796    1.3268    0.7217 O   0  0  0  0  0  0  0  0  0  0  0  0
   -0.9083    2.9377    0.6997 C   0  0  0  0  0  0  0  0  0  0  0  0
   -1.2470    4.2812    0.8845 C   0  0  0  0  0  0  0  0  0  0  0  0
   -2.5501    4.6908    0.7121 C   0  0  0  0  0  0  0  0  0  0  0  0
   -3.5309    3.7677    0.3648 C   0  0  0  0  0  0  0  0  0  0  0  0
   -3.1988    2.4290    0.1857 C   0  0  0  0  0  0  0  0  0  0  0  0
   -1.8968    2.0129    0.3512 C   0  0  0  0  0  0  0  0  0  0  0  0
   -4.8531    4.1862    0.1960 N   0  0  0  0  0  0  0  0  0  0  0  0
   -5.3141    4.9874   -0.8097 C   0  0  0  0  0  0  0  0  0  0  0  0
   -6.6412    5.1679   -0.6384 C   0  0  0  0  0  0  0  0  0  0  0  0
   -7.0237    4.4649    0.5166 C   0  0  0  0  0  0  0  0  0  0  0  0
   -5.9074    3.8659    1.0172 C   0  0  0  0  0  0  0  0  0  0  0  0
   -5.8418    3.0210    2.2285 C   0  0  0  0  0  0  0  0  0  0  0  0
   -4.6215    2.8145    2.8738 C   0  0  0  0  0  0  0  0  0  0  0  0
   -4.5682    2.0292    4.0068 C   0  0  0  0  0  0  0  0  0  0  0  0
   -5.7190    1.4380    4.4973 C   0  0  0  0  0  0  0  0  0  0  0  0
   -6.9309    1.6344    3.8593 C   0  0  0  0  0  0  0  0  0  0  0  0
   -6.9990    2.4216    2.7285 C   0  0  0  0  0  0  0  0  0  0  0  0
   -5.6520    0.5759    5.7315 C   0  0  0  0  0  0  0  0  0  0  0  0
   -4.4826    5.5688   -1.9240 C   0  0  0  0  0  0  0  0  0  0  0  0
   -4.0385    6.9829   -1.5445 C   0  0  0  0  0  0  0  0  0  0  0  0
   -3.2071    7.5643   -2.6588 C   0  0  0  0  0  0  0  0  0  0  0  0
   -2.9918    6.9144   -3.6543 O   0  0  0  0  0  0  0  0  0  0  0  0
    4.7437    3.6584    1.8496 H   0  0  0  0  0  0  0  0  0  0  0  0
    3.7082    4.7909    0.9476 H   0  0  0  0  0  0  0  0  0  0  0  0
    3.3984    4.4831    2.6732 H   0  0  0  0  0  0  0  0  0  0  0  0
    2.8130    2.1313    2.1485 H   0  0  0  0  0  0  0  0  0  0  0  0
    3.1229    2.4392    0.4229 H   0  0  0  0  0  0  0  0  0  0  0  0
   -0.4867    4.9977    1.1585 H   0  0  0  0  0  0  0  0  0  0  0  0
   -2.8118    5.7294    0.8507 H   0  0  0  0  0  0  0  0  0  0  0  0
   -3.9630    1.7151   -0.0839 H   0  0  0  0  0  0  0  0  0  0  0  0
   -1.6397    0.9732    0.2122 H   0  0  0  0  0  0  0  0  0  0  0  0
   -7.2914    5.7519   -1.2728 H   0  0  0  0  0  0  0  0  0  0  0  0
   -8.0194    4.4099    0.9313 H   0  0  0  0  0  0  0  0  0  0  0  0
   -3.7218    3.2718    2.4894 H   0  0  0  0  0  0  0  0  0  0  0  0
   -3.6253    1.8719    4.5095 H   0  0  0  0  0  0  0  0  0  0  0  0
   -7.8255    1.1700    4.2472 H   0  0  0  0  0  0  0  0  0  0  0  0
   -7.9455    2.5736    2.2310 H   0  0  0  0  0  0  0  0  0  0  0  0
   -5.4610   -0.4577    5.4428 H   0  0  0  0  0  0  0  0  0  0  0  0
   -4.8471    0.9275    6.3770 H   0  0  0  0  0  0  0  0  0  0  0  0
   -6.5993    0.6344    6.2674 H   0  0  0  0  0  0  0  0  0  0  0  0
   -3.6047    4.9436   -2.0865 H   0  0  0  0  0  0  0  0  0  0  0  0
   -5.0755    5.6071   -2.8378 H   0  0  0  0  0  0  0  0  0  0  0  0
   -4.9165    7.6081   -1.3820 H   0  0  0  0  0  0  0  0  0  0  0  0
   -3.4456    6.9446   -0.6307 H   0  0  0  0  0  0  0  0  0  0  0  0
   -2.7057    8.8043   -2.5453 O   0  5  0  0  0  0  0  0  0  0  0  0
  1  2  1  0  0  0  0
  1 28  1  0  0  0  0
  1 29  1  0  0  0  0
  1 30  1  0  0  0  0
  2  3  1  0  0  0  0
  2 31  1  0  0  0  0
  2 32  1  0  0  0  0
  3  4  1  0  0  0  0
  4  5  2  0  0  0  0
  4  6  1  0  0  0  0
  6 11  2  0  0  0  0
  6  7  1  0  0  0  0
  7  8  2  0  0  0  0
  7 33  1  0  0  0  0
  8  9  1  0  0  0  0
  8 34  1  0  0  0  0
  9 10  2  0  0  0  0
  9 12  1  0  0  0  0
 10 11  1  0  0  0  0
 10 35  1  0  0  0  0
 11 36  1  0  0  0  0
 12 16  1  0  0  0  0
 12 13  1  0  0  0  0
 13 14  2  0  0  0  0
 13 24  1  0  0  0  0
 14 15  1  0  0  0  0
 14 37  1  0  0  0  0
 15 16  2  0  0  0  0
 15 38  1  0  0  0  0
 16 17  1  0  0  0  0
 17 22  2  0  0  0  0
 17 18  1  0  0  0  0
 18 19  2  0  0  0  0
 18 39  1  0  0  0  0
 19 20  1  0  0  0  0
 19 40  1  0  0  0  0
 20 21  2  0  0  0  0
 20 23  1  0  0  0  0
 21 22  1  0  0  0  0
 21 41  1  0  0  0  0
 22 42  1  0  0  0  0
 23 43  1  0  0  0  0
 23 44  1  0  0  0  0
 23 45  1  0  0  0  0
 24 25  1  0  0  0  0
 24 46  1  0  0  0  0
 24 47  1  0  0  0  0
 25 26  1  0  0  0  0
 25 48  1  0  0  0  0
 25 49  1  0  0  0  0
 26 27  2  0  0  0  0
 26 50  1  0  0  0  0
M  CHG  1  50  -1
M  END
$$$$
ZINC02304291
  -OEChem-08230709463D

 56 58  0     0  0  0  0  0  0999 V2000
   -6.0408   -2.7041    2.0114 C   0  0  0  0  0  0  0  0  0  0  0  0
   -6.1080   -2.2718    0.5453 C   0  0  0  0  0  0  0  0  0  0  0  0
   -6.0589   -0.8098    0.4645 N   0  0  0  0  0  0  0  0  0  0  0  0
   -7.3002   -0.0324    0.4958 C   0  0  0  0  0  0  0  0  0  0  0  0
   -7.8166    0.1616   -0.9313 C   0  0  0  0  0  0  0  0  0  0  0  0
   -4.8271   -0.1564    0.3575 C   0  0  0  0  0  0  0  0  0  0  0  0
   -4.7806    1.2298    0.2809 C   0  0  0  0  0  0  0  0  0  0  0  0
   -3.5648    1.8747    0.1748 C   0  0  0  0  0  0  0  0  0  0  0  0
   -2.3878    1.1376    0.1447 C   0  0  0  0  0  0  0  0  0  0  0  0
   -2.4347   -0.2489    0.2155 C   0  0  0  0  0  0  0  0  0  0  0  0
   -3.6501   -0.8936    0.3274 C   0  0  0  0  0  0  0  0  0  0  0  0
   -1.1551    1.7914    0.0372 N   0  0  0  0  0  0  0  0  0  0  0  0
   -0.0126    1.0758    0.0080 C   0  0  0  0  0  0  0  0  0  0  0  0
    1.2097    1.7237    0.0135 C   0  0  0  0  0  0  0  0  0  0  0  0
    2.4755    0.9765    0.1172 C   0  0  0  0  0  0  0  0  0  0  0  0
    2.4795   -0.2372    0.2017 O   0  0  0  0  0  0  0  0  0  0  0  0
    3.6301    1.6742    0.1107 N   0  0  0  0  0  0  0  0  0  0  0  0
    3.6399    3.0118    0.0245 C   0  0  0  0  0  0  0  0  0  0  0  0
    4.7137    3.5810    0.0289 O   0  0  0  0  0  0  0  0  0  0  0  0
    2.5280    3.7549   -0.0667 N   0  0  0  0  0  0  0  0  0  0  0  0
    1.3024    3.1915   -0.0779 C   0  0  0  0  0  0  0  0  0  0  0  0
    0.3005    3.8768   -0.1615 O   0  0  0  0  0  0  0  0  0  0  0  0
    2.6465    5.2124   -0.1560 C   0  0  0  0  0  0  0  0  0  0  0  0
    3.4543    5.5830   -1.4014 C   0  0  0  0  0  0  0  0  0  0  0  0
    3.5781    7.1052   -1.4945 C   0  0  0  0  0  0  0  0  0  0  0  0
    4.2896    7.6362   -0.2485 C   0  0  0  0  0  0  0  0  0  0  0  0
    3.4818    7.2655    0.9969 C   0  0  0  0  0  0  0  0  0  0  0  0
    3.3580    5.7434    1.0901 C   0  0  0  0  0  0  0  0  0  0  0  0
   -5.1107   -2.3468    2.4533 H   0  0  0  0  0  0  0  0  0  0  0  0
   -6.8866   -2.2816    2.5539 H   0  0  0  0  0  0  0  0  0  0  0  0
   -6.0773   -3.7918    2.0715 H   0  0  0  0  0  0  0  0  0  0  0  0
   -7.0381   -2.6291    0.1034 H   0  0  0  0  0  0  0  0  0  0  0  0
   -5.2622   -2.6943    0.0028 H   0  0  0  0  0  0  0  0  0  0  0  0
   -8.0478   -0.5652    1.0834 H   0  0  0  0  0  0  0  0  0  0  0  0
   -7.1082    0.9405    0.9481 H   0  0  0  0  0  0  0  0  0  0  0  0
   -8.7402    0.7400   -0.9080 H   0  0  0  0  0  0  0  0  0  0  0  0
   -7.0689    0.6943   -1.5189 H   0  0  0  0  0  0  0  0  0  0  0  0
   -8.0085   -0.8114   -1.3837 H   0  0  0  0  0  0  0  0  0  0  0  0
   -5.6956    1.8030    0.3047 H   0  0  0  0  0  0  0  0  0  0  0  0
   -3.5285    2.9525    0.1156 H   0  0  0  0  0  0  0  0  0  0  0  0
   -1.5199   -0.8223    0.1872 H   0  0  0  0  0  0  0  0  0  0  0  0
   -3.6863   -1.9713    0.3866 H   0  0  0  0  0  0  0  0  0  0  0  0
   -1.1226    2.7594   -0.0162 H   0  0  0  0  0  0  0  0  0  0  0  0
   -0.0518   -0.0030   -0.0243 H   0  0  0  0  0  0  0  0  0  0  0  0
    4.4723    1.1973    0.1746 H   0  0  0  0  0  0  0  0  0  0  0  0
    1.6524    5.6543   -0.2228 H   0  0  0  0  0  0  0  0  0  0  0  0
    4.4484    5.1411   -1.3345 H   0  0  0  0  0  0  0  0  0  0  0  0
    2.9475    5.2047   -2.2891 H   0  0  0  0  0  0  0  0  0  0  0  0
    2.5840    7.5472   -1.5614 H   0  0  0  0  0  0  0  0  0  0  0  0
    4.1536    7.3693   -2.3818 H   0  0  0  0  0  0  0  0  0  0  0  0
    4.3778    8.7206   -0.3148 H   0  0  0  0  0  0  0  0  0  0  0  0
    5.2837    7.1942   -0.1816 H   0  0  0  0  0  0  0  0  0  0  0  0
    2.4877    7.7075    0.9301 H   0  0  0  0  0  0  0  0  0  0  0  0
    3.9887    7.6438    1.8847 H   0  0  0  0  0  0  0  0  0  0  0  0
    2.7825    5.4793    1.9774 H   0  0  0  0  0  0  0  0  0  0  0  0
    4.3521    5.3014    1.1570 H   0  0  0  0  0  0  0  0  0  0  0  0
  1  2  1  0  0  0  0
  1 29  1  0  0  0  0
  1 30  1  0  0  0  0
  1 31  1  0  0  0  0
  2  3  1  0  0  0  0
  2 32  1  0  0  0  0
  2 33  1  0  0  0  0
  3  4  1  0  0  0  0
  3  6  1  0  0  0  0
  4  5  1  0  0  0  0
  4 34  1  0  0  0  0
  4 35  1  0  0  0  0
  5 36  1  0  0  0  0
  5 37  1  0  0  0  0
  5 38  1  0  0  0  0
  6 11  2  0  0  0  0
  6  7  1  0  0  0  0
  7  8  2  0  0  0  0
  7 39  1  0  0  0  0
  8  9  1  0  0  0  0
  8 40  1  0  0  0  0
  9 10  2  0  0  0  0
  9 12  1  0  0  0  0
 10 11  1  0  0  0  0
 10 41  1  0  0  0  0
 11 42  1  0  0  0  0
 12 13  1  0  0  0  0
 12 43  1  0  0  0  0
 13 14  2  0  0  0  0
 13 44  1  0  0  0  0
 14 21  1  0  0  0  0
 14 15  1  0  0  0  0
 15 16  2  0  0  0  0
 15 17  1  0  0  0  0
 17 18  1  0  0  0  0
 17 45  1  0  0  0  0
 18 19  2  0  0  0  0
 18 20  1  0  0  0  0
 20 21  1  0  0  0  0
 20 23  1  0  0  0  0
 21 22  2  0  0  0  0
 23 28  1  0  0  0  0
 23 24  1  0  0  0  0
 23 46  1  0  0  0  0
 24 25  1  0  0  0  0
 24 47  1  0  0  0  0
 24 48  1  0  0  0  0
 25 26  1  0  0  0  0
 25 49  1  0  0  0  0
 25 50  1  0  0  0  0
 26 27  1  0  0  0  0
 26 51  1  0  0  0  0
 26 52  1  0  0  0  0
 27 28  1  0  0  0  0
 27 53  1  0  0  0  0
 27 54  1  0  0  0  0
 28 55  1  0  0  0  0
 28 56  1  0  0  0  0
M  END
$$$$
ZINC02358955
  -OEChem-08230709463D

 60 63  0     1  0  0  0  0  0999 V2000
   -4.3273    3.1994   -0.8906 C   0  0  0  0  0  0  0  0  0  0  0  0
   -3.1228    2.9368    0.0156 C   0  0  2  0  0  0  0  0  0  0  0  0
   -3.3427    3.3091    1.0162 H   0  0  0  0  0  0  0  0  0  0  0  0
   -1.9314    3.6656   -0.5305 C   0  0  0  0  0  0  0  0  0  0  0  0
   -0.9075    3.0980   -1.0813 C   0  0  0  0  0  0  0  0  0  0  0  0
   -0.7734    1.6038   -1.2260 C   0  0  2  0  0  0  0  0  0  0  0  0
   -0.2473    1.3400   -2.1435 H   0  0  0  0  0  0  0  0  0  0  0  0
   -2.1764    0.9764   -1.2003 C   0  0  2  0  0  0  0  0  0  0  0  0
   -2.7465    1.3113   -2.0669 H   0  0  0  0  0  0  0  0  0  0  0  0
   -2.8698    1.4356    0.0865 C   0  0  1  0  0  0  0  0  0  0  0  0
   -3.8351    0.9348    0.1613 H   0  0  0  0  0  0  0  0  0  0  0  0
   -2.0325    1.0677    1.3037 C   0  0  0  0  0  0  0  0  0  0  0  0
   -0.6980    1.5551    1.1740 O   0  0  0  0  0  0  0  0  0  0  0  0
   -0.0127    1.0858    0.0080 C   0  0  2  0  0  0  0  0  0  0  0  0
    0.0021   -0.0041    0.0020 H   0  0  0  0  0  0  0  0  0  0  0  0
    1.3982    1.6154   -0.0026 C   0  0  0  0  0  0  0  0  0  0  0  0
    1.6672    2.8717    0.5080 C   0  0  0  0  0  0  0  0  0  0  0  0
    2.9599    3.3616    0.5013 C   0  0  0  0  0  0  0  0  0  0  0  0
    3.9893    2.5932   -0.0183 C   0  0  0  0  0  0  0  0  0  0  0  0
    3.7184    1.3289   -0.5326 C   0  0  0  0  0  0  0  0  0  0  0  0
    2.4214    0.8415   -0.5177 C   0  0  0  0  0  0  0  0  0  0  0  0
    4.7254    0.5710   -1.0436 O   0  0  0  0  0  0  0  0  0  0  0  0
    4.3734   -0.7164   -1.5542 C   0  0  0  0  0  0  0  0  0  0  0  0
    5.2614    3.0738   -0.0259 O   0  0  0  0  0  0  0  0  0  0  0  0
    5.4650    4.3795    0.5179 C   0  0  0  0  0  0  0  0  0  0  0  0
    6.9251    4.7406    0.4246 C   0  0  0  0  0  0  0  0  0  0  0  0
    7.7793    4.4301    1.4678 C   0  0  0  0  0  0  0  0  0  0  0  0
    9.1179    4.7534    1.3869 C   0  0  0  0  0  0  0  0  0  0  0  0
    9.6081    5.4050    0.2534 C   0  0  0  0  0  0  0  0  0  0  0  0
    8.7395    5.7201   -0.7934 C   0  0  0  0  0  0  0  0  0  0  0  0
    7.4042    5.3862   -0.7016 C   0  0  0  0  0  0  0  0  0  0  0  0
   11.0394    5.7589    0.1619 C   0  0  0  0  0  0  0  0  0  0  0  0
   11.4631    6.3254   -0.8256 O   0  0  0  0  0  0  0  0  0  0  0  0
   -2.0633   -0.5494   -1.2123 C   0  0  0  0  0  0  0  0  0  0  0  0
    0.2034    3.9724   -1.6034 C   0  0  0  0  0  0  0  0  0  0  0  0
   -5.2051    2.6985   -0.4824 H   0  0  0  0  0  0  0  0  0  0  0  0
   -4.5137    4.2719   -0.9456 H   0  0  0  0  0  0  0  0  0  0  0  0
   -4.1211    2.8148   -1.8895 H   0  0  0  0  0  0  0  0  0  0  0  0
   -1.9271    4.7431   -0.4567 H   0  0  0  0  0  0  0  0  0  0  0  0
   -2.0087   -0.0171    1.4070 H   0  0  0  0  0  0  0  0  0  0  0  0
   -2.4870    1.5020    2.1942 H   0  0  0  0  0  0  0  0  0  0  0  0
    0.8657    3.4715    0.9132 H   0  0  0  0  0  0  0  0  0  0  0  0
    3.1675    4.3430    0.9014 H   0  0  0  0  0  0  0  0  0  0  0  0
    2.2092   -0.1412   -0.9122 H   0  0  0  0  0  0  0  0  0  0  0  0
    3.9318   -1.3149   -0.7574 H   0  0  0  0  0  0  0  0  0  0  0  0
    3.6532   -0.6016   -2.3642 H   0  0  0  0  0  0  0  0  0  0  0  0
    5.2669   -1.2148   -1.9303 H   0  0  0  0  0  0  0  0  0  0  0  0
    4.8750    5.1033   -0.0444 H   0  0  0  0  0  0  0  0  0  0  0  0
    5.1540    4.3905    1.5626 H   0  0  0  0  0  0  0  0  0  0  0  0
    7.3980    3.9298    2.3457 H   0  0  0  0  0  0  0  0  0  0  0  0
    9.7845    4.5065    2.1999 H   0  0  0  0  0  0  0  0  0  0  0  0
    9.1122    6.2237   -1.6731 H   0  0  0  0  0  0  0  0  0  0  0  0
    6.7313    5.6290   -1.5106 H   0  0  0  0  0  0  0  0  0  0  0  0
   -3.0600   -0.9880   -1.1639 H   0  0  0  0  0  0  0  0  0  0  0  0
   -1.5694   -0.8699   -2.1296 H   0  0  0  0  0  0  0  0  0  0  0  0
   -1.4799   -0.8772   -0.3519 H   0  0  0  0  0  0  0  0  0  0  0  0
    0.0047    4.2298   -2.6437 H   0  0  0  0  0  0  0  0  0  0  0  0
    0.2590    4.8836   -1.0078 H   0  0  0  0  0  0  0  0  0  0  0  0
    1.1499    3.4361   -1.5362 H   0  0  0  0  0  0  0  0  0  0  0  0
   11.8748    5.4535    1.1736 O   0  5  0  0  0  0  0  0  0  0  0  0
  1  2  1  0  0  0  0
  1 36  1  0  0  0  0
  1 37  1  0  0  0  0
  1 38  1  0  0  0  0
  2  3  1  0  0  0  0
  2 10  1  0  0  0  0
  2  4  1  0  0  0  0
  4  5  2  0  0  0  0
  4 39  1  0  0  0  0
  5  6  1  0  0  0  0
  5 35  1  0  0  0  0
  6  7  1  0  0  0  0
  6 14  1  0  0  0  0
  6  8  1  0  0  0  0
  8  9  1  0  0  0  0
  8 10  1  0  0  0  0
  8 34  1  0  0  0  0
 10 11  1  0  0  0  0
 10 12  1  0  0  0  0
 12 13  1  0  0  0  0
 12 40  1  0  0  0  0
 12 41  1  0  0  0  0
 13 14  1  0  0  0  0
 14 15  1  0  0  0  0
 14 16  1  0  0  0  0
 16 21  2  0  0  0  0
 16 17  1  0  0  0  0
 17 18  2  0  0  0  0
 17 42  1  0  0  0  0
 18 19  1  0  0  0  0
 18 43  1  0  0  0  0
 19 20  2  0  0  0  0
 19 24  1  0  0  0  0
 20 21  1  0  0  0  0
 20 22  1  0  0  0  0
 21 44  1  0  0  0  0
 22 23  1  0  0  0  0
 23 45  1  0  0  0  0
 23 46  1  0  0  0  0
 23 47  1  0  0  0  0
 24 25  1  0  0  0  0
 25 26  1  0  0  0  0
 25 48  1  0  0  0  0
 25 49  1  0  0  0  0
 26 31  2  0  0  0  0
 26 27  1  0  0  0  0
 27 28  2  0  0  0  0
 27 50  1  0  0  0  0
 28 29  1  0  0  0  0
 28 51  1  0  0  0  0
 29 30  2  0  0  0  0
 29 32  1  0  0  0  0
 30 31  1  0  0  0  0
 30 52  1  0  0  0  0
 31 53  1  0  0  0  0
 32 33  2  0  0  0  0
 32 60  1  0  0  0  0
 34 54  1  0  0  0  0
 34 55  1  0  0  0  0
 34 56  1  0  0  0  0
 35 57  1  0  0  0  0
 35 58  1  0  0  0  0
 35 59  1  0  0  0  0
M  CHG  1  60  -1
M  END
$$$$
ZINC02380618
  -OEChem-08230709463D

 53 53  0     0  0  0  0  0  0999 V2000
   -0.4338    1.0703   -0.3381 C   0  0  0  0  0  0  0  0  0  0  0  0
   -0.2802    2.5352   -0.0194 C   0  0  0  0  0  0  0  0  0  0  0  0
   -1.2368    3.3408    0.5603 C   0  0  0  0  0  0  0  0  0  0  0  0
   -0.6298    4.6722    0.6707 C   0  0  0  0  0  0  0  0  0  0  0  0
    0.6077    4.5684    0.1558 C   0  0  0  0  0  0  0  0  0  0  0  0
    0.8129    3.2843   -0.2569 N   0  0  0  0  0  0  0  0  0  0  0  0
    2.0477    2.7906   -0.8714 C   0  0  0  0  0  0  0  0  0  0  0  0
    1.9041    2.8139   -2.3945 C   0  0  0  0  0  0  0  0  0  0  0  0
    3.1645    2.2286   -3.0346 C   0  0  0  0  0  0  0  0  0  0  0  0
    3.0269    2.2509   -4.4930 N   0  0  0  0  0  0  0  0  0  0  0  0
    4.0223    1.7813   -5.2710 C   0  0  0  0  0  0  0  0  0  0  0  0
    5.0337    1.3395   -4.7628 O   0  0  0  0  0  0  0  0  0  0  0  0
    3.8959    1.8018   -6.6112 O   0  0  0  0  0  0  0  0  0  0  0  0
    5.0074    1.2800   -7.3862 C   0  0  0  0  0  0  0  0  0  0  0  0
    5.2421   -0.1863   -7.0178 C   0  0  0  0  0  0  0  0  0  0  0  0
    4.6832    1.3855   -8.8777 C   0  0  0  0  0  0  0  0  0  0  0  0
    6.2680    2.0910   -7.0797 C   0  0  0  0  0  0  0  0  0  0  0  0
    1.6081    5.6906    0.0513 C   0  0  0  0  0  0  0  0  0  0  0  0
    0.9268    7.0153    0.4003 C   0  0  0  0  0  0  0  0  0  0  0  0
    2.7613    5.4382    1.0246 C   0  0  0  0  0  0  0  0  0  0  0  0
    2.1519    5.7577   -1.3773 C   0  0  0  0  0  0  0  0  0  0  0  0
   -2.5891    2.9459    0.9839 C   0  0  0  0  0  0  0  0  0  0  0  0
   -2.9626    1.7991    0.8331 O   0  0  0  0  0  0  0  0  0  0  0  0
   -0.1040    0.4765    0.5143 H   0  0  0  0  0  0  0  0  0  0  0  0
   -1.4807    0.8523   -0.5495 H   0  0  0  0  0  0  0  0  0  0  0  0
    0.1721    0.8227   -1.2097 H   0  0  0  0  0  0  0  0  0  0  0  0
   -1.0878    5.5604    1.0804 H   0  0  0  0  0  0  0  0  0  0  0  0
    2.8809    3.4278   -0.5753 H   0  0  0  0  0  0  0  0  0  0  0  0
    2.2355    1.7694   -0.5398 H   0  0  0  0  0  0  0  0  0  0  0  0
    1.0385    2.2194   -2.6869 H   0  0  0  0  0  0  0  0  0  0  0  0
    1.7694    3.8418   -2.7311 H   0  0  0  0  0  0  0  0  0  0  0  0
    4.0301    2.8231   -2.7422 H   0  0  0  0  0  0  0  0  0  0  0  0
    3.2992    1.2007   -2.6980 H   0  0  0  0  0  0  0  0  0  0  0  0
    2.2195    2.6036   -4.8987 H   0  0  0  0  0  0  0  0  0  0  0  0
    4.3440   -0.7640   -7.2361 H   0  0  0  0  0  0  0  0  0  0  0  0
    6.0765   -0.5780   -7.5996 H   0  0  0  0  0  0  0  0  0  0  0  0
    5.4731   -0.2614   -5.9552 H   0  0  0  0  0  0  0  0  0  0  0  0
    4.5159    2.4301   -9.1402 H   0  0  0  0  0  0  0  0  0  0  0  0
    5.5176    0.9938   -9.4595 H   0  0  0  0  0  0  0  0  0  0  0  0
    3.7850    0.8077   -9.0961 H   0  0  0  0  0  0  0  0  0  0  0  0
    6.4990    2.0158   -6.0171 H   0  0  0  0  0  0  0  0  0  0  0  0
    7.1024    1.6993   -7.6615 H   0  0  0  0  0  0  0  0  0  0  0  0
    6.1008    3.1356   -7.3422 H   0  0  0  0  0  0  0  0  0  0  0  0
    0.5394    6.9676    1.4180 H   0  0  0  0  0  0  0  0  0  0  0  0
    1.6503    7.8270    0.3247 H   0  0  0  0  0  0  0  0  0  0  0  0
    0.1052    7.1952   -0.2931 H   0  0  0  0  0  0  0  0  0  0  0  0
    3.3179    4.5563    0.7076 H   0  0  0  0  0  0  0  0  0  0  0  0
    3.4249    6.3028    1.0337 H   0  0  0  0  0  0  0  0  0  0  0  0
    2.3626    5.2757    2.0260 H   0  0  0  0  0  0  0  0  0  0  0  0
    1.3205    5.7981   -2.0810 H   0  0  0  0  0  0  0  0  0  0  0  0
    2.7672    6.6502   -1.4903 H   0  0  0  0  0  0  0  0  0  0  0  0
    2.7553    4.8725   -1.5782 H   0  0  0  0  0  0  0  0  0  0  0  0
   -3.4139    3.8558    1.5393 O   0  5  0  0  0  0  0  0  0  0  0  0
  1  2  1  0  0  0  0
  1 24  1  0  0  0  0
  1 25  1  0  0  0  0
  1 26  1  0  0  0  0
  2  6  1  0  0  0  0
  2  3  2  0  0  0  0
  3  4  1  0  0  0  0
  3 22  1  0  0  0  0
  4  5  2  0  0  0  0
  4 27  1  0  0  0  0
  5  6  1  0  0  0  0
  5 18  1  0  0  0  0
  6  7  1  0  0  0  0
  7  8  1  0  0  0  0
  7 28  1  0  0  0  0
  7 29  1  0  0  0  0
  8  9  1  0  0  0  0
  8 30  1  0  0  0  0
  8 31  1  0  0  0  0
  9 10  1  0  0  0  0
  9 32  1  0  0  0  0
  9 33  1  0  0  0  0
 10 11  1  0  0  0  0
 10 34  1  0  0  0  0
 11 12  2  0  0  0  0
 11 13  1  0  0  0  0
 13 14  1  0  0  0  0
 14 15  1  0  0  0  0
 14 16  1  0  0  0  0
 14 17  1  0  0  0  0
 15 35  1  0  0  0  0
 15 36  1  0  0  0  0
 15 37  1  0  0  0  0
 16 38  1  0  0  0  0
 16 39  1  0  0  0  0
 16 40  1  0  0  0  0
 17 41  1  0  0  0  0
 17 42  1  0  0  0  0
 17 43  1  0  0  0  0
 18 19  1  0  0  0  0
 18 20  1  0  0  0  0
 18 21  1  0  0  0  0
 19 44  1  0  0  0  0
 19 45  1  0  0  0  0
 19 46  1  0  0  0  0
 20 47  1  0  0  0  0
 20 48  1  0  0  0  0
 20 49  1  0  0  0  0
 21 50  1  0  0  0  0
 21 51  1  0  0  0  0
 21 52  1  0  0  0  0
 22 23  2  0  0  0  0
 22 53  1  0  0  0  0
M  CHG  1  53  -1
M  END
$$$$
ZINC02381461
  -OEChem-08230709463D

 60 62  0     1  0  0  0  0  0999 V2000
    3.1731    4.2786  -10.9323 C   0  0  0  0  0  0  0  0  0  0  0  0
    1.7376    3.9501  -10.5172 C   0  0  0  0  0  0  0  0  0  0  0  0
    0.8049    4.1365  -11.7155 C   0  0  0  0  0  0  0  0  0  0  0  0
    1.3072    4.8855   -9.3855 C   0  0  0  0  0  0  0  0  0  0  0  0
    1.6690    2.5737  -10.0600 O   0  0  0  0  0  0  0  0  0  0  0  0
    2.4359    2.2413   -9.0045 C   0  0  0  0  0  0  0  0  0  0  0  0
    3.1432    3.0784   -8.4797 O   0  0  0  0  0  0  0  0  0  0  0  0
    2.4191    0.9799   -8.5299 N   0  0  0  0  0  0  0  0  0  0  0  0
    3.2535    0.6182   -7.3814 C   0  0  1  0  0  0  0  0  0  0  0  0
    3.3093    1.4614   -6.6929 H   0  0  0  0  0  0  0  0  0  0  0  0
    2.6400   -0.5861   -6.6643 C   0  0  0  0  0  0  0  0  0  0  0  0
    1.3059   -0.1973   -6.0811 C   0  0  0  0  0  0  0  0  0  0  0  0
    1.0759    0.2172   -4.8277 C   0  0  0  0  0  0  0  0  0  0  0  0
   -0.2626    0.4817   -4.6606 N   0  0  0  0  0  0  0  0  0  0  0  0
   -0.9383    0.2284   -5.8405 C   0  0  0  0  0  0  0  0  0  0  0  0
    0.0158   -0.2013   -6.7793 C   0  0  0  0  0  0  0  0  0  0  0  0
   -0.3816   -0.5286   -8.0761 C   0  0  0  0  0  0  0  0  0  0  0  0
   -1.7085   -0.4228   -8.4294 C   0  0  0  0  0  0  0  0  0  0  0  0
   -2.6485    0.0065   -7.5039 C   0  0  0  0  0  0  0  0  0  0  0  0
   -2.2706    0.3334   -6.2188 C   0  0  0  0  0  0  0  0  0  0  0  0
   -0.8312    0.9164   -3.5186 C   0  0  0  0  0  0  0  0  0  0  0  0
   -2.0277    1.1205   -3.4753 O   0  0  0  0  0  0  0  0  0  0  0  0
   -0.0731    1.1244   -2.4261 O   0  0  0  0  0  0  0  0  0  0  0  0
   -0.7527    1.5927   -1.2315 C   0  0  0  0  0  0  0  0  0  0  0  0
   -0.0127    1.0858    0.0080 C   0  0  0  0  0  0  0  0  0  0  0  0
   -0.7288    1.5792    1.2668 C   0  0  0  0  0  0  0  0  0  0  0  0
   -0.7496    3.1091    1.2752 C   0  0  0  0  0  0  0  0  0  0  0  0
   -1.4896    3.6159    0.0357 C   0  0  0  0  0  0  0  0  0  0  0  0
   -0.7734    3.1225   -1.2231 C   0  0  0  0  0  0  0  0  0  0  0  0
    4.6392    0.2666   -7.8581 C   0  0  0  0  0  0  0  0  0  0  0  0
    4.9027    0.3133   -9.0364 O   0  0  0  0  0  0  0  0  0  0  0  0
    3.4798    3.6123  -11.7385 H   0  0  0  0  0  0  0  0  0  0  0  0
    3.2246    5.3119  -11.2755 H   0  0  0  0  0  0  0  0  0  0  0  0
    3.8377    4.1458  -10.0786 H   0  0  0  0  0  0  0  0  0  0  0  0
   -0.2178    3.9025  -11.4198 H   0  0  0  0  0  0  0  0  0  0  0  0
    0.8564    5.1698  -12.0588 H   0  0  0  0  0  0  0  0  0  0  0  0
    1.1115    3.4702  -12.5218 H   0  0  0  0  0  0  0  0  0  0  0  0
    1.9718    4.7527   -8.5318 H   0  0  0  0  0  0  0  0  0  0  0  0
    1.3588    5.9188   -9.7287 H   0  0  0  0  0  0  0  0  0  0  0  0
    0.2846    4.6514   -9.0898 H   0  0  0  0  0  0  0  0  0  0  0  0
    1.8545    0.3116   -8.9488 H   0  0  0  0  0  0  0  0  0  0  0  0
    3.3056   -0.9105   -5.8644 H   0  0  0  0  0  0  0  0  0  0  0  0
    2.5023   -1.4008   -7.3752 H   0  0  0  0  0  0  0  0  0  0  0  0
    1.8301    0.3271   -4.0626 H   0  0  0  0  0  0  0  0  0  0  0  0
    0.3476   -0.8635   -8.7990 H   0  0  0  0  0  0  0  0  0  0  0  0
   -2.0190   -0.6751   -9.4326 H   0  0  0  0  0  0  0  0  0  0  0  0
   -3.6862    0.0852   -7.7926 H   0  0  0  0  0  0  0  0  0  0  0  0
   -3.0104    0.6662   -5.5059 H   0  0  0  0  0  0  0  0  0  0  0  0
   -1.7753    1.2154   -1.2238 H   0  0  0  0  0  0  0  0  0  0  0  0
    0.0021   -0.0041    0.0020 H   0  0  0  0  0  0  0  0  0  0  0  0
    1.0099    1.4631    0.0003 H   0  0  0  0  0  0  0  0  0  0  0  0
   -1.7514    1.2020    1.2746 H   0  0  0  0  0  0  0  0  0  0  0  0
   -0.2017    1.2182    2.1499 H   0  0  0  0  0  0  0  0  0  0  0  0
    0.2730    3.4864    1.2675 H   0  0  0  0  0  0  0  0  0  0  0  0
   -1.2598    3.4606    2.1720 H   0  0  0  0  0  0  0  0  0  0  0  0
   -1.5044    4.7058    0.0417 H   0  0  0  0  0  0  0  0  0  0  0  0
   -2.5122    3.2386    0.0434 H   0  0  0  0  0  0  0  0  0  0  0  0
    0.2491    3.4998   -1.2308 H   0  0  0  0  0  0  0  0  0  0  0  0
   -1.3006    3.4836   -2.1062 H   0  0  0  0  0  0  0  0  0  0  0  0
    5.5807   -0.0985   -6.9738 O   0  5  0  0  0  0  0  0  0  0  0  0
  1  2  1  0  0  0  0
  1 32  1  0  0  0  0
  1 33  1  0  0  0  0
  1 34  1  0  0  0  0
  2  3  1  0  0  0  0
  2  4  1  0  0  0  0
  2  5  1  0  0  0  0
  3 35  1  0  0  0  0
  3 36  1  0  0  0  0
  3 37  1  0  0  0  0
  4 38  1  0  0  0  0
  4 39  1  0  0  0  0
  4 40  1  0  0  0  0
  5  6  1  0  0  0  0
  6  7  2  0  0  0  0
  6  8  1  0  0  0  0
  8  9  1  0  0  0  0
  8 41  1  0  0  0  0
  9 10  1  0  0  0  0
  9 11  1  0  0  0  0
  9 30  1  0  0  0  0
 11 12  1  0  0  0  0
 11 42  1  0  0  0  0
 11 43  1  0  0  0  0
 12 16  1  0  0  0  0
 12 13  2  0  0  0  0
 13 14  1  0  0  0  0
 13 44  1  0  0  0  0
 14 15  1  0  0  0  0
 14 21  1  0  0  0  0
 15 20  2  0  0  0  0
 15 16  1  0  0  0  0
 16 17  2  0  0  0  0
 17 18  1  0  0  0  0
 17 45  1  0  0  0  0
 18 19  2  0  0  0  0
 18 46  1  0  0  0  0
 19 20  1  0  0  0  0
 19 47  1  0  0  0  0
 20 48  1  0  0  0  0
 21 22  2  0  0  0  0
 21 23  1  0  0  0  0
 23 24  1  0  0  0  0
 24 29  1  0  0  0  0
 24 25  1  0  0  0  0
 24 49  1  0  0  0  0
 25 26  1  0  0  0  0
 25 50  1  0  0  0  0
 25 51  1  0  0  0  0
 26 27  1  0  0  0  0
 26 52  1  0  0  0  0
 26 53  1  0  0  0  0
 27 28  1  0  0  0  0
 27 54  1  0  0  0  0
 27 55  1  0  0  0  0
 28 29  1  0  0  0  0
 28 56  1  0  0  0  0
 28 57  1  0  0  0  0
 29 58  1  0  0  0  0
 29 59  1  0  0  0  0
 30 31  2  0  0  0  0
 30 60  1  0  0  0  0
M  CHG  1  60  -1
M  END
$$$$
ZINC02382579
  -OEChem-08230709463D

 51 52  0     1  0  0  0  0  0999 V2000
   -1.4865    6.0298   -1.8798 C   0  0  0  0  0  0  0  0  0  0  0  0
   -2.5695    4.9878   -2.1668 C   0  0  0  0  0  0  0  0  0  0  0  0
   -3.2586    5.3201   -3.4918 C   0  0  0  0  0  0  0  0  0  0  0  0
   -3.6018    5.0009   -1.0377 C   0  0  0  0  0  0  0  0  0  0  0  0
   -1.9634    3.6712   -2.2533 O   0  0  0  0  0  0  0  0  0  0  0  0
   -1.3123    3.2252   -1.1625 C   0  0  0  0  0  0  0  0  0  0  0  0
   -1.2520    3.9172   -0.1656 O   0  0  0  0  0  0  0  0  0  0  0  0
   -0.7272    2.0111   -1.1764 N   0  0  0  0  0  0  0  0  0  0  0  0
   -0.0187    1.5258    0.0104 C   0  0  1  0  0  0  0  0  0  0  0  0
   -0.5289    1.8773    0.9072 H   0  0  0  0  0  0  0  0  0  0  0  0
    0.0021   -0.0041    0.0020 C   0  0  0  0  0  0  0  0  0  0  0  0
   -1.4051   -0.5263    0.1365 C   0  0  0  0  0  0  0  0  0  0  0  0
   -2.0099   -0.9001    1.2724 C   0  0  0  0  0  0  0  0  0  0  0  0
   -3.2915   -1.3184    1.0044 N   0  0  0  0  0  0  0  0  0  0  0  0
   -3.5373   -1.2260   -0.3536 C   0  0  0  0  0  0  0  0  0  0  0  0
   -2.3674   -0.7267   -0.9523 C   0  0  0  0  0  0  0  0  0  0  0  0
   -2.3223   -0.5269   -2.3325 C   0  0  0  0  0  0  0  0  0  0  0  0
   -3.4269   -0.8220   -3.1003 C   0  0  0  0  0  0  0  0  0  0  0  0
   -4.5807   -1.3151   -2.5086 C   0  0  0  0  0  0  0  0  0  0  0  0
   -4.6402   -1.5170   -1.1460 C   0  0  0  0  0  0  0  0  0  0  0  0
   -4.1731   -1.7575    1.9245 C   0  0  0  0  0  0  0  0  0  0  0  0
   -5.2834   -2.1106    1.5817 O   0  0  0  0  0  0  0  0  0  0  0  0
   -3.8230   -1.8046    3.2232 O   0  0  0  0  0  0  0  0  0  0  0  0
   -4.8229   -2.2882    4.1583 C   0  0  0  0  0  0  0  0  0  0  0  0
   -4.2555   -2.2702    5.5543 C   0  0  0  0  0  0  0  0  0  0  0  0
   -4.9706   -1.8000    6.5461 C   0  0  0  0  0  0  0  0  0  0  0  0
    1.3951    2.0474   -0.0003 C   0  0  0  0  0  0  0  0  0  0  0  0
    1.7722    2.7522   -0.9063 O   0  0  0  0  0  0  0  0  0  0  0  0
   -0.7510    6.0205   -2.6842 H   0  0  0  0  0  0  0  0  0  0  0  0
   -1.9415    7.0182   -1.8149 H   0  0  0  0  0  0  0  0  0  0  0  0
   -0.9956    5.7931   -0.9358 H   0  0  0  0  0  0  0  0  0  0  0  0
   -4.0301    4.5777   -3.6963 H   0  0  0  0  0  0  0  0  0  0  0  0
   -3.7135    6.3085   -3.4269 H   0  0  0  0  0  0  0  0  0  0  0  0
   -2.5231    5.3108   -4.2962 H   0  0  0  0  0  0  0  0  0  0  0  0
   -3.1109    4.7642   -0.0937 H   0  0  0  0  0  0  0  0  0  0  0  0
   -4.0568    5.9893   -0.9728 H   0  0  0  0  0  0  0  0  0  0  0  0
   -4.3733    4.2585   -1.2422 H   0  0  0  0  0  0  0  0  0  0  0  0
   -0.7753    1.4586   -1.9723 H   0  0  0  0  0  0  0  0  0  0  0  0
    0.4324   -0.3564   -0.9354 H   0  0  0  0  0  0  0  0  0  0  0  0
    0.6044   -0.3639    0.8362 H   0  0  0  0  0  0  0  0  0  0  0  0
   -1.5582   -0.8743    2.2531 H   0  0  0  0  0  0  0  0  0  0  0  0
   -1.4255   -0.1434   -2.7964 H   0  0  0  0  0  0  0  0  0  0  0  0
   -3.3948   -0.6685   -4.1689 H   0  0  0  0  0  0  0  0  0  0  0  0
   -5.4407   -1.5427   -3.1210 H   0  0  0  0  0  0  0  0  0  0  0  0
   -5.5436   -1.9006   -0.6953 H   0  0  0  0  0  0  0  0  0  0  0  0
   -5.7019   -1.6451    4.1151 H   0  0  0  0  0  0  0  0  0  0  0  0
   -5.1050   -3.3073    3.8939 H   0  0  0  0  0  0  0  0  0  0  0  0
   -3.2592   -2.6449    5.7371 H   0  0  0  0  0  0  0  0  0  0  0  0
   -5.9669   -1.4252    6.3632 H   0  0  0  0  0  0  0  0  0  0  0  0
   -4.5640   -1.7871    7.5465 H   0  0  0  0  0  0  0  0  0  0  0  0
    2.2355    1.7290    0.9968 O   0  5  0  0  0  0  0  0  0  0  0  0
  1  2  1  0  0  0  0
  1 29  1  0  0  0  0
  1 30  1  0  0  0  0
  1 31  1  0  0  0  0
  2  3  1  0  0  0  0
  2  4  1  0  0  0  0
  2  5  1  0  0  0  0
  3 32  1  0  0  0  0
  3 33  1  0  0  0  0
  3 34  1  0  0  0  0
  4 35  1  0  0  0  0
  4 36  1  0  0  0  0
  4 37  1  0  0  0  0
  5  6  1  0  0  0  0
  6  7  2  0  0  0  0
  6  8  1  0  0  0  0
  8  9  1  0  0  0  0
  8 38  1  0  0  0  0
  9 10  1  0  0  0  0
  9 11  1  0  0  0  0
  9 27  1  0  0  0  0
 11 12  1  0  0  0  0
 11 39  1  0  0  0  0
 11 40  1  0  0  0  0
 12 16  1  0  0  0  0
 12 13  2  0  0  0  0
 13 14  1  0  0  0  0
 13 41  1  0  0  0  0
 14 15  1  0  0  0  0
 14 21  1  0  0  0  0
 15 20  2  0  0  0  0
 15 16  1  0  0  0  0
 16 17  2  0  0  0  0
 17 18  1  0  0  0  0
 17 42  1  0  0  0  0
 18 19  2  0  0  0  0
 18 43  1  0  0  0  0
 19 20  1  0  0  0  0
 19 44  1  0  0  0  0
 20 45  1  0  0  0  0
 21 22  2  0  0  0  0
 21 23  1  0  0  0  0
 23 24  1  0  0  0  0
 24 25  1  0  0  0  0
 24 46  1  0  0  0  0
 24 47  1  0  0  0  0
 25 26  2  0  0  0  0
 25 48  1  0  0  0  0
 26 49  1  0  0  0  0
 26 50  1  0  0  0  0
 27 28  2  0  0  0  0
 27 51  1  0  0  0  0
M  CHG  1  51  -1
M  END
$$$$
ZINC02384204
  -OEChem-08230709463D

 57 57  0     1  0  0  0  0  0999 V2000
   -2.3327    1.4310    4.3003 C   0  0  0  0  0  0  0  0  0  0  0  0
   -2.3921   -0.0956    4.2186 C   0  0  0  0  0  0  0  0  0  0  0  0
   -3.6640   -0.5941    4.9074 C   0  0  0  0  0  0  0  0  0  0  0  0
   -1.1675   -0.6917    4.9158 C   0  0  0  0  0  0  0  0  0  0  0  0
   -2.4035   -0.5058    2.8258 O   0  0  0  0  0  0  0  0  0  0  0  0
   -1.3503   -0.1451    2.0757 C   0  0  0  0  0  0  0  0  0  0  0  0
   -0.4488    0.4921    2.5667 O   0  0  0  0  0  0  0  0  0  0  0  0
   -1.2924   -0.5351    0.6212 C   0  0  0  0  0  0  0  0  0  0  0  0
    0.0021   -0.0041    0.0020 C   0  0  1  0  0  0  0  0  0  0  0  0
    0.8543   -0.3591    0.5815 H   0  0  0  0  0  0  0  0  0  0  0  0
    0.1192   -0.4971   -1.4172 C   0  0  0  0  0  0  0  0  0  0  0  0
    0.1798    0.2940   -2.3285 O   0  0  0  0  0  0  0  0  0  0  0  0
   -0.0178    1.4608    0.0101 N   0  0  0  0  0  0  0  0  0  0  0  0
    1.1401    2.1505    0.0027 C   0  0  0  0  0  0  0  0  0  0  0  0
    2.2005    1.5573   -0.0106 O   0  0  0  0  0  0  0  0  0  0  0  0
    1.1218    3.4967    0.0101 O   0  0  0  0  0  0  0  0  0  0  0  0
    2.4065    4.1734    0.0015 C   0  0  0  0  0  0  0  0  0  0  0  0
    3.2057    3.7663    1.2410 C   0  0  0  0  0  0  0  0  0  0  0  0
    3.1819    3.7797   -1.2573 C   0  0  0  0  0  0  0  0  0  0  0  0
    2.1888    5.6646    0.0116 C   0  0  0  0  0  0  0  0  0  0  0  0
    0.9045    6.1748    0.0266 C   0  0  0  0  0  0  0  0  0  0  0  0
    0.7017    7.5413    0.0359 C   0  0  0  0  0  0  0  0  0  0  0  0
    1.7879    8.4053    0.0306 C   0  0  0  0  0  0  0  0  0  0  0  0
    3.0770    7.8961    0.0155 C   0  0  0  0  0  0  0  0  0  0  0  0
    3.2780    6.5241    0.0115 C   0  0  0  0  0  0  0  0  0  0  0  0
    4.5407    6.0218    0.0024 O   0  0  0  0  0  0  0  0  0  0  0  0
    5.6141    6.9651    0.0029 C   0  0  0  0  0  0  0  0  0  0  0  0
    1.5877    9.7494    0.0406 O   0  0  0  0  0  0  0  0  0  0  0  0
    0.2329   10.2035    0.0564 C   0  0  0  0  0  0  0  0  0  0  0  0
   -3.2051    1.8556    3.8036 H   0  0  0  0  0  0  0  0  0  0  0  0
   -2.3242    1.7389    5.3458 H   0  0  0  0  0  0  0  0  0  0  0  0
   -1.4265    1.7861    3.8095 H   0  0  0  0  0  0  0  0  0  0  0  0
   -3.7064   -1.6818    4.8493 H   0  0  0  0  0  0  0  0  0  0  0  0
   -3.6555   -0.2863    5.9530 H   0  0  0  0  0  0  0  0  0  0  0  0
   -4.5365   -0.1695    4.4108 H   0  0  0  0  0  0  0  0  0  0  0  0
   -0.2613   -0.3366    4.4250 H   0  0  0  0  0  0  0  0  0  0  0  0
   -1.1589   -0.3838    5.9613 H   0  0  0  0  0  0  0  0  0  0  0  0
   -1.2098   -1.7793    4.8576 H   0  0  0  0  0  0  0  0  0  0  0  0
   -2.1475   -0.1091    0.0965 H   0  0  0  0  0  0  0  0  0  0  0  0
   -1.3174   -1.6214    0.5350 H   0  0  0  0  0  0  0  0  0  0  0  0
   -0.8643    1.9343    0.0167 H   0  0  0  0  0  0  0  0  0  0  0  0
    3.3632    2.6878    1.2337 H   0  0  0  0  0  0  0  0  0  0  0  0
    4.1701    4.2743    1.2345 H   0  0  0  0  0  0  0  0  0  0  0  0
    2.6533    4.0468    2.1378 H   0  0  0  0  0  0  0  0  0  0  0  0
    2.6125    4.0698   -2.1404 H   0  0  0  0  0  0  0  0  0  0  0  0
    4.1462    4.2877   -1.2638 H   0  0  0  0  0  0  0  0  0  0  0  0
    3.3393    2.7012   -1.2646 H   0  0  0  0  0  0  0  0  0  0  0  0
    0.0580    5.5041    0.0314 H   0  0  0  0  0  0  0  0  0  0  0  0
   -0.3029    7.9376    0.0476 H   0  0  0  0  0  0  0  0  0  0  0  0
    3.9235    8.5668    0.0118 H   0  0  0  0  0  0  0  0  0  0  0  0
    6.5654    6.4330   -0.0050 H   0  0  0  0  0  0  0  0  0  0  0  0
    5.5436    7.5963   -0.8830 H   0  0  0  0  0  0  0  0  0  0  0  0
    5.5522    7.5855    0.8970 H   0  0  0  0  0  0  0  0  0  0  0  0
    0.2150   11.2933    0.0632 H   0  0  0  0  0  0  0  0  0  0  0  0
   -0.2835    9.8371   -0.8308 H   0  0  0  0  0  0  0  0  0  0  0  0
   -0.2663    9.8264    0.9490 H   0  0  0  0  0  0  0  0  0  0  0  0
    0.1561   -1.8150   -1.6690 O   0  5  0  0  0  0  0  0  0  0  0  0
  1  2  1  0  0  0  0
  1 30  1  0  0  0  0
  1 31  1  0  0  0  0
  1 32  1  0  0  0  0
  2  3  1  0  0  0  0
  2  4  1  0  0  0  0
  2  5  1  0  0  0  0
  3 33  1  0  0  0  0
  3 34  1  0  0  0  0
  3 35  1  0  0  0  0
  4 36  1  0  0  0  0
  4 37  1  0  0  0  0
  4 38  1  0  0  0  0
  5  6  1  0  0  0  0
  6  7  2  0  0  0  0
  6  8  1  0  0  0  0
  8  9  1  0  0  0  0
  8 39  1  0  0  0  0
  8 40  1  0  0  0  0
  9 10  1  0  0  0  0
  9 11  1  0  0  0  0
  9 13  1  0  0  0  0
 11 12  2  0  0  0  0
 11 57  1  0  0  0  0
 13 14  1  0  0  0  0
 13 41  1  0  0  0  0
 14 15  2  0  0  0  0
 14 16  1  0  0  0  0
 16 17  1  0  0  0  0
 17 18  1  0  0  0  0
 17 19  1  0  0  0  0
 17 20  1  0  0  0  0
 18 42  1  0  0  0  0
 18 43  1  0  0  0  0
 18 44  1  0  0  0  0
 19 45  1  0  0  0  0
 19 46  1  0  0  0  0
 19 47  1  0  0  0  0
 20 25  2  0  0  0  0
 20 21  1  0  0  0  0
 21 22  2  0  0  0  0
 21 48  1  0  0  0  0
 22 23  1  0  0  0  0
 22 49  1  0  0  0  0
 23 24  2  0  0  0  0
 23 28  1  0  0  0  0
 24 25  1  0  0  0  0
 24 50  1  0  0  0  0
 25 26  1  0  0  0  0
 26 27  1  0  0  0  0
 27 51  1  0  0  0  0
 27 52  1  0  0  0  0
 27 53  1  0  0  0  0
 28 29  1  0  0  0  0
 29 54  1  0  0  0  0
 29 55  1  0  0  0  0
 29 56  1  0  0  0  0
M  CHG  1  57  -1
M  END
$$$$
ZINC02386121
  -OEChem-08230709463D

 54 54  0     1  0  0  0  0  0999 V2000
   -5.2029    2.7711   -9.1180 C   0  0  0  0  0  0  0  0  0  0  0  0
   -3.8320    2.1116   -9.2806 C   0  0  0  0  0  0  0  0  0  0  0  0
   -3.3003    2.3810  -10.6897 C   0  0  0  0  0  0  0  0  0  0  0  0
   -3.9631    0.6025   -9.0648 C   0  0  0  0  0  0  0  0  0  0  0  0
   -2.9110    2.6621   -8.3023 O   0  0  0  0  0  0  0  0  0  0  0  0
   -3.2344    2.5089   -7.0043 C   0  0  0  0  0  0  0  0  0  0  0  0
   -4.2584    1.9311   -6.6974 O   0  0  0  0  0  0  0  0  0  0  0  0
   -2.4225    2.9966   -6.0454 N   0  0  0  0  0  0  0  0  0  0  0  0
   -2.6998    2.7417   -4.6975 C   0  0  0  0  0  0  0  0  0  0  0  0
   -3.2876    1.5406   -4.3230 C   0  0  0  0  0  0  0  0  0  0  0  0
   -3.5595    1.2920   -2.9920 C   0  0  0  0  0  0  0  0  0  0  0  0
   -3.2466    2.2373   -2.0325 C   0  0  0  0  0  0  0  0  0  0  0  0
   -2.6664    3.4366   -2.4027 C   0  0  0  0  0  0  0  0  0  0  0  0
   -2.3872    3.6892   -3.7316 C   0  0  0  0  0  0  0  0  0  0  0  0
   -3.5443    1.9625   -0.5810 C   0  0  0  0  0  0  0  0  0  0  0  0
   -2.3383    1.2786    0.0663 C   0  0  2  0  0  0  0  0  0  0  0  0
   -2.0797    0.3846   -0.5012 H   0  0  0  0  0  0  0  0  0  0  0  0
   -2.6797    0.8933    1.4826 C   0  0  0  0  0  0  0  0  0  0  0  0
   -2.0375    1.3422    2.4024 O   0  0  0  0  0  0  0  0  0  0  0  0
   -1.1993    2.1999    0.0719 N   0  0  0  0  0  0  0  0  0  0  0  0
    0.0583    1.7165    0.1066 C   0  0  0  0  0  0  0  0  0  0  0  0
    0.2474    0.5165    0.1332 O   0  0  0  0  0  0  0  0  0  0  0  0
    1.1052    2.5631    0.1061 O   0  0  0  0  0  0  0  0  0  0  0  0
    2.4310    1.9720    0.1384 C   0  0  0  0  0  0  0  0  0  0  0  0
    2.6222    1.0811   -1.0907 C   0  0  0  0  0  0  0  0  0  0  0  0
    3.4844    3.0816    0.1329 C   0  0  0  0  0  0  0  0  0  0  0  0
    2.5834    1.1304    1.4070 C   0  0  0  0  0  0  0  0  0  0  0  0
   -5.1095    3.8461   -9.2716 H   0  0  0  0  0  0  0  0  0  0  0  0
   -5.8943    2.3578   -9.8523 H   0  0  0  0  0  0  0  0  0  0  0  0
   -5.5817    2.5791   -8.1141 H   0  0  0  0  0  0  0  0  0  0  0  0
   -2.3236    1.9111  -10.8055 H   0  0  0  0  0  0  0  0  0  0  0  0
   -3.9917    1.9677  -11.4241 H   0  0  0  0  0  0  0  0  0  0  0  0
   -3.2069    3.4560  -10.8434 H   0  0  0  0  0  0  0  0  0  0  0  0
   -4.3419    0.4106   -8.0610 H   0  0  0  0  0  0  0  0  0  0  0  0
   -4.6545    0.1893   -9.7992 H   0  0  0  0  0  0  0  0  0  0  0  0
   -2.9865    0.1327   -9.1807 H   0  0  0  0  0  0  0  0  0  0  0  0
   -1.6460    3.5242   -6.2895 H   0  0  0  0  0  0  0  0  0  0  0  0
   -3.5316    0.8016   -5.0719 H   0  0  0  0  0  0  0  0  0  0  0  0
   -4.0167    0.3580   -2.7001 H   0  0  0  0  0  0  0  0  0  0  0  0
   -2.4276    4.1749   -1.6516 H   0  0  0  0  0  0  0  0  0  0  0  0
   -1.9296    4.6241   -4.0196 H   0  0  0  0  0  0  0  0  0  0  0  0
   -4.4150    1.3112   -0.5056 H   0  0  0  0  0  0  0  0  0  0  0  0
   -3.7479    2.9022   -0.0676 H   0  0  0  0  0  0  0  0  0  0  0  0
   -1.3503    3.1579    0.0507 H   0  0  0  0  0  0  0  0  0  0  0  0
    2.5136    1.6807   -1.9945 H   0  0  0  0  0  0  0  0  0  0  0  0
    3.6175    0.6374   -1.0665 H   0  0  0  0  0  0  0  0  0  0  0  0
    1.8717    0.2906   -1.0868 H   0  0  0  0  0  0  0  0  0  0  0  0
    3.3482    3.7163    1.0085 H   0  0  0  0  0  0  0  0  0  0  0  0
    4.4797    2.6378    0.1571 H   0  0  0  0  0  0  0  0  0  0  0  0
    3.3758    3.6812   -0.7709 H   0  0  0  0  0  0  0  0  0  0  0  0
    1.8330    0.3399    1.4109 H   0  0  0  0  0  0  0  0  0  0  0  0
    3.5787    0.6866    1.4312 H   0  0  0  0  0  0  0  0  0  0  0  0
    2.4472    1.7650    2.2826 H   0  0  0  0  0  0  0  0  0  0  0  0
   -3.6973    0.0514    1.7224 O   0  5  0  0  0  0  0  0  0  0  0  0
  1  2  1  0  0  0  0
  1 28  1  0  0  0  0
  1 29  1  0  0  0  0
  1 30  1  0  0  0  0
  2  3  1  0  0  0  0
  2  4  1  0  0  0  0
  2  5  1  0  0  0  0
  3 31  1  0  0  0  0
  3 32  1  0  0  0  0
  3 33  1  0  0  0  0
  4 34  1  0  0  0  0
  4 35  1  0  0  0  0
  4 36  1  0  0  0  0
  5  6  1  0  0  0  0
  6  7  2  0  0  0  0
  6  8  1  0  0  0  0
  8  9  1  0  0  0  0
  8 37  1  0  0  0  0
  9 14  2  0  0  0  0
  9 10  1  0  0  0  0
 10 11  2  0  0  0  0
 10 38  1  0  0  0  0
 11 12  1  0  0  0  0
 11 39  1  0  0  0  0
 12 13  2  0  0  0  0
 12 15  1  0  0  0  0
 13 14  1  0  0  0  0
 13 40  1  0  0  0  0
 14 41  1  0  0  0  0
 15 16  1  0  0  0  0
 15 42  1  0  0  0  0
 15 43  1  0  0  0  0
 16 17  1  0  0  0  0
 16 18  1  0  0  0  0
 16 20  1  0  0  0  0
 18 19  2  0  0  0  0
 18 54  1  0  0  0  0
 20 21  1  0  0  0  0
 20 44  1  0  0  0  0
 21 22  2  0  0  0  0
 21 23  1  0  0  0  0
 23 24  1  0  0  0  0
 24 25  1  0  0  0  0
 24 26  1  0  0  0  0
 24 27  1  0  0  0  0
 25 45  1  0  0  0  0
 25 46  1  0  0  0  0
 25 47  1  0  0  0  0
 26 48  1  0  0  0  0
 26 49  1  0  0  0  0
 26 50  1  0  0  0  0
 27 51  1  0  0  0  0
 27 52  1  0  0  0  0
 27 53  1  0  0  0  0
M  CHG  1  54  -1
M  END
$$$$
ZINC02389703
  -OEChem-08230709463D

 55 57  0     1  0  0  0  0  0999 V2000
   -6.9130    3.5561   -3.5913 C   0  0  0  0  0  0  0  0  0  0  0  0
   -7.5826    4.9150   -3.3765 C   0  0  0  0  0  0  0  0  0  0  0  0
   -8.6803    4.7812   -2.3192 C   0  0  0  0  0  0  0  0  0  0  0  0
   -8.1979    5.3941   -4.6928 C   0  0  0  0  0  0  0  0  0  0  0  0
   -6.6078    5.8616   -2.9340 O   0  0  0  0  0  0  0  0  0  0  0  0
   -5.5327    6.0620   -3.8538 C   0  0  0  0  0  0  0  0  0  0  0  0
   -4.5552    7.0895   -3.2797 C   0  0  1  0  0  0  0  0  0  0  0  0
   -3.7920    7.3198   -4.0231 H   0  0  0  0  0  0  0  0  0  0  0  0
   -5.3026    8.3478   -2.9204 C   0  0  0  0  0  0  0  0  0  0  0  0
   -5.3031    8.7452   -1.7793 O   0  0  0  0  0  0  0  0  0  0  0  0
   -3.9183    6.5404   -2.0800 N   0  0  0  0  0  0  0  0  0  0  0  0
   -4.7181    6.2779   -0.8810 C   0  0  0  0  0  0  0  0  0  0  0  0
   -2.5966    6.2767   -2.0795 C   0  0  0  0  0  0  0  0  0  0  0  0
   -1.9332    6.4944   -3.0740 O   0  0  0  0  0  0  0  0  0  0  0  0
   -2.0112    5.7721   -0.9770 O   0  0  0  0  0  0  0  0  0  0  0  0
   -0.5844    5.5127   -1.0482 C   0  0  0  0  0  0  0  0  0  0  0  0
   -0.1016    4.9462    0.2885 C   0  0  1  0  0  0  0  0  0  0  0  0
   -0.6668    3.5632    0.5011 C   0  0  0  0  0  0  0  0  0  0  0  0
   -1.9606    3.0971    0.6004 C   0  0  0  0  0  0  0  0  0  0  0  0
   -2.1978    1.7478    0.7949 C   0  0  0  0  0  0  0  0  0  0  0  0
   -1.1378    0.8654    0.8998 C   0  0  0  0  0  0  0  0  0  0  0  0
    0.1599    1.3229    0.8013 C   0  0  0  0  0  0  0  0  0  0  0  0
    0.4066    2.6821    0.6001 C   0  0  0  0  0  0  0  0  0  0  0  0
    1.6779    3.4345    0.4599 C   0  0  0  0  0  0  0  0  0  0  0  0
    1.3988    4.7856    0.2733 C   0  0  0  0  0  0  0  0  0  0  0  0
    2.4253    5.6927    0.1168 C   0  0  0  0  0  0  0  0  0  0  0  0
    3.7401    5.2625    0.1445 C   0  0  0  0  0  0  0  0  0  0  0  0
    4.0275    3.9221    0.3293 C   0  0  0  0  0  0  0  0  0  0  0  0
    3.0068    3.0077    0.4872 C   0  0  0  0  0  0  0  0  0  0  0  0
   -6.4746    3.2148   -2.6535 H   0  0  0  0  0  0  0  0  0  0  0  0
   -7.6565    2.8341   -3.9289 H   0  0  0  0  0  0  0  0  0  0  0  0
   -6.1309    3.6514   -4.3445 H   0  0  0  0  0  0  0  0  0  0  0  0
   -9.1573    5.7493   -2.1662 H   0  0  0  0  0  0  0  0  0  0  0  0
   -9.4238    4.0591   -2.6568 H   0  0  0  0  0  0  0  0  0  0  0  0
   -8.2420    4.4399   -1.3815 H   0  0  0  0  0  0  0  0  0  0  0  0
   -7.4158    5.4894   -5.4461 H   0  0  0  0  0  0  0  0  0  0  0  0
   -8.9414    4.6720   -5.0304 H   0  0  0  0  0  0  0  0  0  0  0  0
   -8.6749    6.3621   -4.5398 H   0  0  0  0  0  0  0  0  0  0  0  0
   -5.9286    6.4271   -4.8014 H   0  0  0  0  0  0  0  0  0  0  0  0
   -5.0132    5.1177   -4.0167 H   0  0  0  0  0  0  0  0  0  0  0  0
   -4.6508    7.1307   -0.2055 H   0  0  0  0  0  0  0  0  0  0  0  0
   -5.7585    6.1209   -1.1655 H   0  0  0  0  0  0  0  0  0  0  0  0
   -4.3400    5.3868   -0.3799 H   0  0  0  0  0  0  0  0  0  0  0  0
   -0.0563    6.4423   -1.2608 H   0  0  0  0  0  0  0  0  0  0  0  0
   -0.3852    4.7922   -1.8414 H   0  0  0  0  0  0  0  0  0  0  0  0
   -0.4005    5.6033    1.1052 H   0  0  0  0  0  0  0  0  0  0  0  0
   -2.7895    3.7851    0.5229 H   0  0  0  0  0  0  0  0  0  0  0  0
   -3.2118    1.3837    0.8687 H   0  0  0  0  0  0  0  0  0  0  0  0
   -1.3270   -0.1865    1.0551 H   0  0  0  0  0  0  0  0  0  0  0  0
    0.9845    0.6299    0.8800 H   0  0  0  0  0  0  0  0  0  0  0  0
    2.2029    6.7397   -0.0273 H   0  0  0  0  0  0  0  0  0  0  0  0
    4.5431    5.9741    0.0214 H   0  0  0  0  0  0  0  0  0  0  0  0
    5.0550    3.5903    0.3508 H   0  0  0  0  0  0  0  0  0  0  0  0
    3.2356    1.9621    0.6317 H   0  0  0  0  0  0  0  0  0  0  0  0
   -5.9676    9.0271   -3.8680 O   0  5  0  0  0  0  0  0  0  0  0  0
  1  2  1  0  0  0  0
  1 30  1  0  0  0  0
  1 31  1  0  0  0  0
  1 32  1  0  0  0  0
  2  3  1  0  0  0  0
  2  4  1  0  0  0  0
  2  5  1  0  0  0  0
  3 33  1  0  0  0  0
  3 34  1  0  0  0  0
  3 35  1  0  0  0  0
  4 36  1  0  0  0  0
  4 37  1  0  0  0  0
  4 38  1  0  0  0  0
  5  6  1  0  0  0  0
  6  7  1  0  0  0  0
  6 39  1  0  0  0  0
  6 40  1  0  0  0  0
  7  8  1  0  0  0  0
  7  9  1  0  0  0  0
  7 11  1  0  0  0  0
  9 10  2  0  0  0  0
  9 55  1  0  0  0  0
 11 12  1  0  0  0  0
 11 13  1  0  0  0  0
 12 41  1  0  0  0  0
 12 42  1  0  0  0  0
 12 43  1  0  0  0  0
 13 14  2  0  0  0  0
 13 15  1  0  0  0  0
 15 16  1  0  0  0  0
 16 17  1  0  0  0  0
 16 44  1  0  0  0  0
 16 45  1  0  0  0  0
 17 25  1  0  0  0  0
 17 18  1  0  0  0  0
 17 46  1  0  0  0  0
 18 23  2  0  0  0  0
 18 19  1  0  0  0  0
 19 20  2  0  0  0  0
 19 47  1  0  0  0  0
 20 21  1  0  0  0  0
 20 48  1  0  0  0  0
 21 22  2  0  0  0  0
 21 49  1  0  0  0  0
 22 23  1  0  0  0  0
 22 50  1  0  0  0  0
 23 24  1  0  0  0  0
 24 29  2  0  0  0  0
 24 25  1  0  0  0  0
 25 26  2  0  0  0  0
 26 27  1  0  0  0  0
 26 51  1  0  0  0  0
 27 28  2  0  0  0  0
 27 52  1  0  0  0  0
 28 29  1  0  0  0  0
 28 53  1  0  0  0  0
 29 54  1  0  0  0  0
M  CHG  1  55  -1
M  END
$$$$
ZINC02389704
  -OEChem-08230709463D

 58 60  0     1  0  0  0  0  0999 V2000
   -4.4169    4.5104   -3.3091 C   0  0  0  0  0  0  0  0  0  0  0  0
   -5.1309    5.8435   -3.5415 C   0  0  2  0  0  0  0  0  0  0  0  0
   -5.3426    5.9619   -4.6041 H   0  0  0  0  0  0  0  0  0  0  0  0
   -4.2356    6.9907   -3.0688 C   0  0  1  0  0  0  0  0  0  0  0  0
   -3.3537    7.0497   -3.7066 H   0  0  0  0  0  0  0  0  0  0  0  0
   -4.9989    8.2878   -3.1455 C   0  0  0  0  0  0  0  0  0  0  0  0
   -5.1787    8.9430   -2.1464 O   0  0  0  0  0  0  0  0  0  0  0  0
   -3.8218    6.7487   -1.6845 N   0  0  0  0  0  0  0  0  0  0  0  0
   -4.8169    6.7633   -0.6093 C   0  0  0  0  0  0  0  0  0  0  0  0
   -2.5258    6.5126   -1.4000 C   0  0  0  0  0  0  0  0  0  0  0  0
   -1.7005    6.5005   -2.2918 O   0  0  0  0  0  0  0  0  0  0  0  0
   -2.1455    6.2902   -0.1277 O   0  0  0  0  0  0  0  0  0  0  0  0
   -0.7337    6.0431    0.1046 C   0  0  0  0  0  0  0  0  0  0  0  0
   -0.4951    5.8140    1.5985 C   0  0  1  0  0  0  0  0  0  0  0  0
   -1.1222    4.5113    2.0309 C   0  0  0  0  0  0  0  0  0  0  0  0
   -2.4256    4.0620    2.0177 C   0  0  0  0  0  0  0  0  0  0  0  0
   -2.7256    2.7928    2.4801 C   0  0  0  0  0  0  0  0  0  0  0  0
   -1.7203    1.9760    2.9654 C   0  0  0  0  0  0  0  0  0  0  0  0
   -0.4134    2.4171    2.9820 C   0  0  0  0  0  0  0  0  0  0  0  0
   -0.1027    3.6946    2.5125 C   0  0  0  0  0  0  0  0  0  0  0  0
    1.1926    4.4121    2.4158 C   0  0  0  0  0  0  0  0  0  0  0  0
    0.9823    5.6772    1.8737 C   0  0  0  0  0  0  0  0  0  0  0  0
    2.0428    6.5375    1.6839 C   0  0  0  0  0  0  0  0  0  0  0  0
    3.3234    6.1459    2.0323 C   0  0  0  0  0  0  0  0  0  0  0  0
    3.5424    4.8911    2.5715 C   0  0  0  0  0  0  0  0  0  0  0  0
    2.4871    4.0240    2.7653 C   0  0  0  0  0  0  0  0  0  0  0  0
   -6.3564    5.8619   -2.8067 O   0  0  0  0  0  0  0  0  0  0  0  0
   -7.5195    5.6568   -3.6112 C   0  0  0  0  0  0  0  0  0  0  0  0
   -7.3651    4.3612   -4.4101 C   0  0  0  0  0  0  0  0  0  0  0  0
   -8.7518    5.5564   -2.7098 C   0  0  0  0  0  0  0  0  0  0  0  0
   -7.6870    6.8334   -4.5748 C   0  0  0  0  0  0  0  0  0  0  0  0
   -4.2931    4.3463   -2.2387 H   0  0  0  0  0  0  0  0  0  0  0  0
   -5.0107    3.7013   -3.7344 H   0  0  0  0  0  0  0  0  0  0  0  0
   -3.4384    4.5339   -3.7887 H   0  0  0  0  0  0  0  0  0  0  0  0
   -4.8435    7.7525   -0.1523 H   0  0  0  0  0  0  0  0  0  0  0  0
   -5.7985    6.5260   -1.0195 H   0  0  0  0  0  0  0  0  0  0  0  0
   -4.5490    6.0222    0.1438 H   0  0  0  0  0  0  0  0  0  0  0  0
   -0.1545    6.9046   -0.2278 H   0  0  0  0  0  0  0  0  0  0  0  0
   -0.4229    5.1594   -0.4526 H   0  0  0  0  0  0  0  0  0  0  0  0
   -0.9096    6.6401    2.1763 H   0  0  0  0  0  0  0  0  0  0  0  0
   -3.2125    4.6998    1.6430 H   0  0  0  0  0  0  0  0  0  0  0  0
   -3.7465    2.4409    2.4656 H   0  0  0  0  0  0  0  0  0  0  0  0
   -1.9590    0.9873    3.3286 H   0  0  0  0  0  0  0  0  0  0  0  0
    0.3689    1.7747    3.3583 H   0  0  0  0  0  0  0  0  0  0  0  0
    1.8739    7.5178    1.2634 H   0  0  0  0  0  0  0  0  0  0  0  0
    4.1532    6.8208    1.8826 H   0  0  0  0  0  0  0  0  0  0  0  0
    4.5433    4.5892    2.8425 H   0  0  0  0  0  0  0  0  0  0  0  0
    2.6625    3.0453    3.1869 H   0  0  0  0  0  0  0  0  0  0  0  0
   -7.2244    3.5259   -3.7242 H   0  0  0  0  0  0  0  0  0  0  0  0
   -8.2613    4.1938   -5.0076 H   0  0  0  0  0  0  0  0  0  0  0  0
   -6.4996    4.4409   -5.0679 H   0  0  0  0  0  0  0  0  0  0  0  0
   -8.8618    6.4794   -2.1406 H   0  0  0  0  0  0  0  0  0  0  0  0
   -9.6390    5.4000   -3.3234 H   0  0  0  0  0  0  0  0  0  0  0  0
   -8.6325    4.7182   -2.0233 H   0  0  0  0  0  0  0  0  0  0  0  0
   -6.8091    6.9049   -5.2169 H   0  0  0  0  0  0  0  0  0  0  0  0
   -8.5742    6.6770   -5.1884 H   0  0  0  0  0  0  0  0  0  0  0  0
   -7.7970    7.7564   -4.0056 H   0  0  0  0  0  0  0  0  0  0  0  0
   -5.4789    8.7154   -4.3239 O   0  5  0  0  0  0  0  0  0  0  0  0
  1  2  1  0  0  0  0
  1 32  1  0  0  0  0
  1 33  1  0  0  0  0
  1 34  1  0  0  0  0
  2  3  1  0  0  0  0
  2  4  1  0  0  0  0
  2 27  1  0  0  0  0
  4  5  1  0  0  0  0
  4  6  1  0  0  0  0
  4  8  1  0  0  0  0
  6  7  2  0  0  0  0
  6 58  1  0  0  0  0
  8  9  1  0  0  0  0
  8 10  1  0  0  0  0
  9 35  1  0  0  0  0
  9 36  1  0  0  0  0
  9 37  1  0  0  0  0
 10 11  2  0  0  0  0
 10 12  1  0  0  0  0
 12 13  1  0  0  0  0
 13 14  1  0  0  0  0
 13 38  1  0  0  0  0
 13 39  1  0  0  0  0
 14 22  1  0  0  0  0
 14 15  1  0  0  0  0
 14 40  1  0  0  0  0
 15 20  2  0  0  0  0
 15 16  1  0  0  0  0
 16 17  2  0  0  0  0
 16 41  1  0  0  0  0
 17 18  1  0  0  0  0
 17 42  1  0  0  0  0
 18 19  2  0  0  0  0
 18 43  1  0  0  0  0
 19 20  1  0  0  0  0
 19 44  1  0  0  0  0
 20 21  1  0  0  0  0
 21 26  2  0  0  0  0
 21 22  1  0  0  0  0
 22 23  2  0  0  0  0
 23 24  1  0  0  0  0
 23 45  1  0  0  0  0
 24 25  2  0  0  0  0
 24 46  1  0  0  0  0
 25 26  1  0  0  0  0
 25 47  1  0  0  0  0
 26 48  1  0  0  0  0
 27 28  1  0  0  0  0
 28 29  1  0  0  0  0
 28 30  1  0  0  0  0
 28 31  1  0  0  0  0
 29 49  1  0  0  0  0
 29 50  1  0  0  0  0
 29 51  1  0  0  0  0
 30 52  1  0  0  0  0
 30 53  1  0  0  0  0
 30 54  1  0  0  0  0
 31 55  1  0  0  0  0
 31 56  1  0  0  0  0
 31 57  1  0  0  0  0
M  CHG  1  58  -1
M  END
$$$$
ZINC02472435
  -OEChem-08230709463D

 60 64  0     1  0  0  0  0  0999 V2000
   -2.2007   10.3870   -3.7207 C   0  0  0  0  0  0  0  0  0  0  0  0
   -1.5159    9.8633   -2.4567 C   0  0  0  0  0  0  0  0  0  0  0  0
   -1.4005    8.3396   -2.5332 C   0  0  0  0  0  0  0  0  0  0  0  0
   -0.7158    7.8159   -1.2692 C   0  0  0  0  0  0  0  0  0  0  0  0
   -0.6003    6.2921   -1.3457 C   0  0  0  0  0  0  0  0  0  0  0  0
    0.0844    5.7684   -0.0817 C   0  0  2  0  0  0  0  0  0  0  0  0
   -0.4506    6.1447    0.7903 H   0  0  0  0  0  0  0  0  0  0  0  0
    1.5144    6.2852   -0.0446 C   0  0  0  0  0  0  0  0  0  0  0  0
    2.4193    5.3256   -0.8150 C   0  0  0  0  0  0  0  0  0  0  0  0
    2.4244    4.0254   -0.1310 N   0  0  1  0  0  0  0  0  0  0  0  0
    1.1583    3.4567   -0.0796 C   0  0  0  0  0  0  0  0  0  0  0  0
    0.0239    4.2659   -0.0806 C   0  0  0  0  0  0  0  0  0  0  0  0
   -1.2270    3.6997   -0.0909 C   0  0  0  0  0  0  0  0  0  0  0  0
   -1.3767    2.3139   -0.0737 C   0  0  0  0  0  0  0  0  0  0  0  0
   -0.2431    1.5044   -0.0207 C   0  0  0  0  0  0  0  0  0  0  0  0
    1.0197    2.0709   -0.0181 C   0  0  0  0  0  0  0  0  0  0  0  0
    2.1832    1.1277    0.0703 C   0  0  1  0  0  0  0  0  0  0  0  0
    2.1015    0.5279    0.9767 H   0  0  0  0  0  0  0  0  0  0  0  0
    2.2160    0.2166   -1.1334 C   0  0  0  0  0  0  0  0  0  0  0  0
    3.4381    0.0685   -1.5707 C   0  0  0  0  0  0  0  0  0  0  0  0
    4.4156    0.8555   -0.7282 C   0  0  0  0  0  0  0  0  0  0  0  0
    3.5341    1.8600    0.0545 C   0  0  1  0  0  0  0  0  0  0  0  0
    3.9086    2.0611    1.0583 H   0  0  0  0  0  0  0  0  0  0  0  0
    3.3986    3.1354   -0.7761 C   0  0  1  0  0  0  0  0  0  0  0  0
    4.3652    3.6356   -0.8368 H   0  0  0  0  0  0  0  0  0  0  0  0
    2.9217    2.7860   -2.1623 C   0  0  0  0  0  0  0  0  0  0  0  0
    3.7780    2.1641   -3.0516 C   0  0  0  0  0  0  0  0  0  0  0  0
    3.3393    1.8401   -4.3218 C   0  0  0  0  0  0  0  0  0  0  0  0
    2.0468    2.1454   -4.7055 C   0  0  0  0  0  0  0  0  0  0  0  0
    1.1921    2.7721   -3.8180 C   0  0  0  0  0  0  0  0  0  0  0  0
    1.6296    3.0926   -2.5464 C   0  0  0  0  0  0  0  0  0  0  0  0
   -2.7209    1.7103   -0.1057 C   0  0  0  0  0  0  0  0  0  0  0  0
   -3.7052    2.4213   -0.1518 O   0  0  0  0  0  0  0  0  0  0  0  0
   -1.6106   10.1108   -4.5945 H   0  0  0  0  0  0  0  0  0  0  0  0
   -3.1963    9.9508   -3.8018 H   0  0  0  0  0  0  0  0  0  0  0  0
   -2.2829   11.4725   -3.6662 H   0  0  0  0  0  0  0  0  0  0  0  0
   -2.1060   10.1395   -1.5828 H   0  0  0  0  0  0  0  0  0  0  0  0
   -0.5203   10.2995   -2.3755 H   0  0  0  0  0  0  0  0  0  0  0  0
   -0.8105    8.0633   -3.4071 H   0  0  0  0  0  0  0  0  0  0  0  0
   -2.3961    7.9034   -2.6143 H   0  0  0  0  0  0  0  0  0  0  0  0
   -1.3058    8.0921   -0.3953 H   0  0  0  0  0  0  0  0  0  0  0  0
    0.2799    8.2520   -1.1880 H   0  0  0  0  0  0  0  0  0  0  0  0
   -0.0103    6.0159   -2.2196 H   0  0  0  0  0  0  0  0  0  0  0  0
   -1.5960    5.8560   -1.4269 H   0  0  0  0  0  0  0  0  0  0  0  0
    1.8507    6.3506    0.9902 H   0  0  0  0  0  0  0  0  0  0  0  0
    1.5563    7.2727   -0.5041 H   0  0  0  0  0  0  0  0  0  0  0  0
    3.4328    5.7256   -0.8467 H   0  0  0  0  0  0  0  0  0  0  0  0
    2.0434    5.2025   -1.8307 H   0  0  0  0  0  0  0  0  0  0  0  0
   -2.1016    4.3328   -0.1162 H   0  0  0  0  0  0  0  0  0  0  0  0
   -0.3506    0.4303    0.0139 H   0  0  0  0  0  0  0  0  0  0  0  0
    1.3467   -0.2492   -1.5735 H   0  0  0  0  0  0  0  0  0  0  0  0
    3.7137   -0.5370   -2.4216 H   0  0  0  0  0  0  0  0  0  0  0  0
    5.1242    1.3864   -1.3639 H   0  0  0  0  0  0  0  0  0  0  0  0
    4.9438    0.1961   -0.0395 H   0  0  0  0  0  0  0  0  0  0  0  0
    4.7888    1.9286   -2.7529 H   0  0  0  0  0  0  0  0  0  0  0  0
    4.0072    1.3509   -5.0153 H   0  0  0  0  0  0  0  0  0  0  0  0
    1.7049    1.8947   -5.6988 H   0  0  0  0  0  0  0  0  0  0  0  0
    0.1825    3.0109   -4.1178 H   0  0  0  0  0  0  0  0  0  0  0  0
    0.9619    3.5822   -1.8530 H   0  0  0  0  0  0  0  0  0  0  0  0
   -2.8583    0.3699   -0.0837 O   0  5  0  0  0  0  0  0  0  0  0  0
  1  2  1  0  0  0  0
  1 34  1  0  0  0  0
  1 35  1  0  0  0  0
  1 36  1  0  0  0  0
  2  3  1  0  0  0  0
  2 37  1  0  0  0  0
  2 38  1  0  0  0  0
  3  4  1  0  0  0  0
  3 39  1  0  0  0  0
  3 40  1  0  0  0  0
  4  5  1  0  0  0  0
  4 41  1  0  0  0  0
  4 42  1  0  0  0  0
  5  6  1  0  0  0  0
  5 43  1  0  0  0  0
  5 44  1  0  0  0  0
  6  7  1  0  0  0  0
  6 12  1  0  0  0  0
  6  8  1  0  0  0  0
  8  9  1  0  0  0  0
  8 45  1  0  0  0  0
  8 46  1  0  0  0  0
  9 10  1  0  0  0  0
  9 47  1  0  0  0  0
  9 48  1  0  0  0  0
 10 24  1  0  0  0  0
 10 11  1  0  0  0  0
 11 16  2  0  0  0  0
 11 12  1  0  0  0  0
 12 13  2  0  0  0  0
 13 14  1  0  0  0  0
 13 49  1  0  0  0  0
 14 15  2  0  0  0  0
 14 32  1  0  0  0  0
 15 16  1  0  0  0  0
 15 50  1  0  0  0  0
 16 17  1  0  0  0  0
 17 18  1  0  0  0  0
 17 22  1  0  0  0  0
 17 19  1  0  0  0  0
 19 20  2  0  0  0  0
 19 51  1  0  0  0  0
 20 21  1  0  0  0  0
 20 52  1  0  0  0  0
 21 22  1  0  0  0  0
 21 53  1  0  0  0  0
 21 54  1  0  0  0  0
 22 23  1  0  0  0  0
 22 24  1  0  0  0  0
 24 25  1  0  0  0  0
 24 26  1  0  0  0  0
 26 31  2  0  0  0  0
 26 27  1  0  0  0  0
 27 28  2  0  0  0  0
 27 55  1  0  0  0  0
 28 29  1  0  0  0  0
 28 56  1  0  0  0  0
 29 30  2  0  0  0  0
 29 57  1  0  0  0  0
 30 31  1  0  0  0  0
 30 58  1  0  0  0  0
 31 59  1  0  0  0  0
 32 33  2  0  0  0  0
 32 60  1  0  0  0  0
M  CHG  1  60  -1
M  END
$$$$
ZINC02476248
  -OEChem-08230709463D

 56 58  0     1  0  0  0  0  0999 V2000
    2.3406   -2.8811   -9.0872 C   0  0  0  0  0  0  0  0  0  0  0  0
    1.5800   -3.4289   -7.8779 C   0  0  0  0  0  0  0  0  0  0  0  0
    2.5505   -3.6258   -6.7115 C   0  0  0  0  0  0  0  0  0  0  0  0
    1.8287   -4.1457   -5.5639 O   0  0  0  0  0  0  0  0  0  0  0  0
    2.5441   -4.3768   -4.4440 C   0  0  0  0  0  0  0  0  0  0  0  0
    3.7389   -4.1497   -4.4278 O   0  0  0  0  0  0  0  0  0  0  0  0
    1.8822   -4.9011   -3.2476 C   0  0  0  0  0  0  0  0  0  0  0  0
    1.7715   -6.3312   -3.0126 C   0  0  0  0  0  0  0  0  0  0  0  0
    1.1319   -6.6794   -1.8753 C   0  0  0  0  0  0  0  0  0  0  0  0
    0.6871   -5.1428   -1.1169 S   0  0  0  0  0  0  0  0  0  0  0  0
    1.3405   -4.0507   -2.2927 C   0  0  0  0  0  0  0  0  0  0  0  0
    1.3217   -2.6648   -2.2851 N   0  0  0  0  0  0  0  0  0  0  0  0
    0.7387   -2.0043   -1.2651 C   0  0  0  0  0  0  0  0  0  0  0  0
    0.2305   -2.6227   -0.3539 O   0  0  0  0  0  0  0  0  0  0  0  0
    0.7182   -0.4975   -1.2568 C   0  0  2  0  0  0  0  0  0  0  0  0
    0.1910   -0.1364   -2.1398 H   0  0  0  0  0  0  0  0  0  0  0  0
    2.1536    0.0321   -1.2676 C   0  0  0  0  0  0  0  0  0  0  0  0
    2.1328    1.5619   -1.2592 C   0  0  0  0  0  0  0  0  0  0  0  0
    1.4167    2.0553   -0.0004 C   0  0  0  0  0  0  0  0  0  0  0  0
   -0.0187    1.5258    0.0104 C   0  0  0  0  0  0  0  0  0  0  0  0
    0.0021   -0.0041    0.0020 C   0  0  1  0  0  0  0  0  0  0  0  0
    0.5293   -0.3651    0.8851 H   0  0  0  0  0  0  0  0  0  0  0  0
   -1.4117   -0.5257    0.0127 C   0  0  0  0  0  0  0  0  0  0  0  0
   -1.8061   -1.2208   -0.8935 O   0  0  0  0  0  0  0  0  0  0  0  0
    0.8641   -8.0666   -1.3782 C   0  0  0  0  0  0  0  0  0  0  0  0
    1.0943   -9.0484   -2.5362 C   0  0  1  0  0  0  0  0  0  0  0  0
    0.2862   -8.9536   -3.2616 H   0  0  0  0  0  0  0  0  0  0  0  0
    2.4309   -8.7165   -3.2061 C   0  0  0  0  0  0  0  0  0  0  0  0
    2.3192   -7.3907   -3.9609 C   0  0  0  0  0  0  0  0  0  0  0  0
    1.1329  -10.4792   -1.9956 C   0  0  0  0  0  0  0  0  0  0  0  0
    3.1188   -3.5871   -9.3772 H   0  0  0  0  0  0  0  0  0  0  0  0
    1.6492   -2.7409   -9.9181 H   0  0  0  0  0  0  0  0  0  0  0  0
    2.7955   -1.9252   -8.8278 H   0  0  0  0  0  0  0  0  0  0  0  0
    1.1251   -4.3849   -8.1374 H   0  0  0  0  0  0  0  0  0  0  0  0
    0.8018   -2.7230   -7.5879 H   0  0  0  0  0  0  0  0  0  0  0  0
    3.0054   -2.6699   -6.4521 H   0  0  0  0  0  0  0  0  0  0  0  0
    3.3287   -4.3317   -7.0016 H   0  0  0  0  0  0  0  0  0  0  0  0
    1.7281   -2.1702   -3.0138 H   0  0  0  0  0  0  0  0  0  0  0  0
    2.6808   -0.3290   -0.3846 H   0  0  0  0  0  0  0  0  0  0  0  0
    2.6638   -0.3194   -2.1644 H   0  0  0  0  0  0  0  0  0  0  0  0
    3.1554    1.9392   -1.2670 H   0  0  0  0  0  0  0  0  0  0  0  0
    1.6057    1.9230   -2.1423 H   0  0  0  0  0  0  0  0  0  0  0  0
    1.4019    3.1452    0.0056 H   0  0  0  0  0  0  0  0  0  0  0  0
    1.9439    1.6943    0.8826 H   0  0  0  0  0  0  0  0  0  0  0  0
   -0.5459    1.8868   -0.8726 H   0  0  0  0  0  0  0  0  0  0  0  0
   -0.5289    1.8773    0.9072 H   0  0  0  0  0  0  0  0  0  0  0  0
    1.5432   -8.3002   -0.5582 H   0  0  0  0  0  0  0  0  0  0  0  0
   -0.1674   -8.1404   -1.0337 H   0  0  0  0  0  0  0  0  0  0  0  0
    3.2071   -8.6358   -2.4451 H   0  0  0  0  0  0  0  0  0  0  0  0
    2.6917   -9.5098   -3.9066 H   0  0  0  0  0  0  0  0  0  0  0  0
    3.3043   -7.0886   -4.3165 H   0  0  0  0  0  0  0  0  0  0  0  0
    1.6429   -7.5080   -4.8076 H   0  0  0  0  0  0  0  0  0  0  0  0
    0.1853  -10.7092   -1.5085 H   0  0  0  0  0  0  0  0  0  0  0  0
    1.2963  -11.1744   -2.8190 H   0  0  0  0  0  0  0  0  0  0  0  0
    1.9445  -10.5732   -1.2741 H   0  0  0  0  0  0  0  0  0  0  0  0
   -2.2329   -0.2181    1.0290 O   0  5  0  0  0  0  0  0  0  0  0  0
  1  2  1  0  0  0  0
  1 31  1  0  0  0  0
  1 32  1  0  0  0  0
  1 33  1  0  0  0  0
  2  3  1  0  0  0  0
  2 34  1  0  0  0  0
  2 35  1  0  0  0  0
  3  4  1  0  0  0  0
  3 36  1  0  0  0  0
  3 37  1  0  0  0  0
  4  5  1  0  0  0  0
  5  6  2  0  0  0  0
  5  7  1  0  0  0  0
  7 11  2  0  0  0  0
  7  8  1  0  0  0  0
  8 29  1  0  0  0  0
  8  9  2  0  0  0  0
  9 10  1  0  0  0  0
  9 25  1  0  0  0  0
 10 11  1  0  0  0  0
 11 12  1  0  0  0  0
 12 13  1  0  0  0  0
 12 38  1  0  0  0  0
 13 14  2  0  0  0  0
 13 15  1  0  0  0  0
 15 16  1  0  0  0  0
 15 21  1  0  0  0  0
 15 17  1  0  0  0  0
 17 18  1  0  0  0  0
 17 39  1  0  0  0  0
 17 40  1  0  0  0  0
 18 19  1  0  0  0  0
 18 41  1  0  0  0  0
 18 42  1  0  0  0  0
 19 20  1  0  0  0  0
 19 43  1  0  0  0  0
 19 44  1  0  0  0  0
 20 21  1  0  0  0  0
 20 45  1  0  0  0  0
 20 46  1  0  0  0  0
 21 22  1  0  0  0  0
 21 23  1  0  0  0  0
 23 24  2  0  0  0  0
 23 56  1  0  0  0  0
 25 26  1  0  0  0  0
 25 47  1  0  0  0  0
 25 48  1  0  0  0  0
 26 27  1  0  0  0  0
 26 28  1  0  0  0  0
 26 30  1  0  0  0  0
 28 29  1  0  0  0  0
 28 49  1  0  0  0  0
 28 50  1  0  0  0  0
 29 51  1  0  0  0  0
 29 52  1  0  0  0  0
 30 53  1  0  0  0  0
 30 54  1  0  0  0  0
 30 55  1  0  0  0  0
M  CHG  1  56  -1
M  END
$$$$
ZINC02486397
  -OEChem-08230709463D

 51 53  0     1  0  0  0  0  0999 V2000
    9.0962   -1.2182   -2.0755 C   0  0  0  0  0  0  0  0  0  0  0  0
    7.9134   -2.1528   -1.8141 C   0  0  0  0  0  0  0  0  0  0  0  0
    6.7867   -1.7491   -2.6363 O   0  0  0  0  0  0  0  0  0  0  0  0
    5.6557   -2.4756   -2.5247 C   0  0  0  0  0  0  0  0  0  0  0  0
    5.6131   -3.4210   -1.7605 O   0  0  0  0  0  0  0  0  0  0  0  0
    4.4792   -2.1261   -3.3235 C   0  0  0  0  0  0  0  0  0  0  0  0
    4.2662   -2.7037   -4.6441 C   0  0  0  0  0  0  0  0  0  0  0  0
    3.1487   -2.2843   -5.2751 C   0  0  0  0  0  0  0  0  0  0  0  0
    2.3799   -1.1590   -4.1425 S   0  0  0  0  0  0  0  0  0  0  0  0
    3.5274   -1.2365   -2.8477 C   0  0  0  0  0  0  0  0  0  0  0  0
    3.5036   -0.5677   -1.6339 N   0  0  0  0  0  0  0  0  0  0  0  0
    2.4884    0.2709   -1.3464 C   0  0  0  0  0  0  0  0  0  0  0  0
    1.5957    0.4402   -2.1497 O   0  0  0  0  0  0  0  0  0  0  0  0
    2.4625    0.9980   -0.0267 C   0  0  1  0  0  0  0  0  0  0  0  0
    3.4672    1.0279    0.3950 H   0  0  0  0  0  0  0  0  0  0  0  0
    1.9446    2.4229   -0.2346 C   0  0  0  0  0  0  0  0  0  0  0  0
    0.4806    2.3979   -0.5632 C   0  0  0  0  0  0  0  0  0  0  0  0
   -0.2937    1.3831   -0.3486 C   0  0  0  0  0  0  0  0  0  0  0  0
    0.1641    0.0862    0.2543 C   0  0  0  0  0  0  0  0  0  0  0  0
    1.5180    0.2751    0.9419 C   0  0  1  0  0  0  0  0  0  0  0  0
    1.3904    0.8732    1.8442 H   0  0  0  0  0  0  0  0  0  0  0  0
    2.0948   -1.0696    1.3029 C   0  0  0  0  0  0  0  0  0  0  0  0
    3.1567   -1.4150    0.8415 O   0  0  0  0  0  0  0  0  0  0  0  0
    2.6687   -2.6705   -6.6393 C   0  0  0  0  0  0  0  0  0  0  0  0
    2.7126   -4.1981   -6.7784 C   0  0  0  0  0  0  0  0  0  0  0  0
    4.0864   -4.5945   -7.3101 C   0  0  0  0  0  0  0  0  0  0  0  0
    5.1505   -3.6324   -6.7859 C   0  0  0  0  0  0  0  0  0  0  0  0
    5.2314   -3.7057   -5.2651 C   0  0  0  0  0  0  0  0  0  0  0  0
    9.3763   -1.2722   -3.1275 H   0  0  0  0  0  0  0  0  0  0  0  0
    8.8131   -0.1954   -1.8269 H   0  0  0  0  0  0  0  0  0  0  0  0
    9.9420   -1.5213   -1.4583 H   0  0  0  0  0  0  0  0  0  0  0  0
    7.6333   -2.0988   -0.7621 H   0  0  0  0  0  0  0  0  0  0  0  0
    8.1965   -3.1756   -2.0628 H   0  0  0  0  0  0  0  0  0  0  0  0
    4.2175   -0.7032   -0.9914 H   0  0  0  0  0  0  0  0  0  0  0  0
    2.1006    3.0006    0.6765 H   0  0  0  0  0  0  0  0  0  0  0  0
    2.4892    2.8891   -1.0556 H   0  0  0  0  0  0  0  0  0  0  0  0
    0.0460    3.2816   -1.0067 H   0  0  0  0  0  0  0  0  0  0  0  0
   -1.3357    1.4754   -0.6171 H   0  0  0  0  0  0  0  0  0  0  0  0
    0.2599   -0.6613   -0.5331 H   0  0  0  0  0  0  0  0  0  0  0  0
   -0.5684   -0.2547    0.9861 H   0  0  0  0  0  0  0  0  0  0  0  0
    1.6453   -2.3218   -6.7772 H   0  0  0  0  0  0  0  0  0  0  0  0
    3.3127   -2.2178   -7.3933 H   0  0  0  0  0  0  0  0  0  0  0  0
    2.5485   -4.6602   -5.8049 H   0  0  0  0  0  0  0  0  0  0  0  0
    1.9406   -4.5255   -7.4748 H   0  0  0  0  0  0  0  0  0  0  0  0
    4.3221   -5.6071   -6.9829 H   0  0  0  0  0  0  0  0  0  0  0  0
    4.0760   -4.5600   -8.3995 H   0  0  0  0  0  0  0  0  0  0  0  0
    6.1181   -3.8984   -7.2116 H   0  0  0  0  0  0  0  0  0  0  0  0
    4.8940   -2.6152   -7.0818 H   0  0  0  0  0  0  0  0  0  0  0  0
    4.9697   -4.7116   -4.9368 H   0  0  0  0  0  0  0  0  0  0  0  0
    6.2472   -3.4734   -4.9451 H   0  0  0  0  0  0  0  0  0  0  0  0
    1.4262   -1.8858    2.1327 O   0  5  0  0  0  0  0  0  0  0  0  0
  1  2  1  0  0  0  0
  1 29  1  0  0  0  0
  1 30  1  0  0  0  0
  1 31  1  0  0  0  0
  2  3  1  0  0  0  0
  2 32  1  0  0  0  0
  2 33  1  0  0  0  0
  3  4  1  0  0  0  0
  4  5  2  0  0  0  0
  4  6  1  0  0  0  0
  6 10  2  0  0  0  0
  6  7  1  0  0  0  0
  7 28  1  0  0  0  0
  7  8  2  0  0  0  0
  8  9  1  0  0  0  0
  8 24  1  0  0  0  0
  9 10  1  0  0  0  0
 10 11  1  0  0  0  0
 11 12  1  0  0  0  0
 11 34  1  0  0  0  0
 12 13  2  0  0  0  0
 12 14  1  0  0  0  0
 14 15  1  0  0  0  0
 14 20  1  0  0  0  0
 14 16  1  0  0  0  0
 16 17  1  0  0  0  0
 16 35  1  0  0  0  0
 16 36  1  0  0  0  0
 17 18  2  0  0  0  0
 17 37  1  0  0  0  0
 18 19  1  0  0  0  0
 18 38  1  0  0  0  0
 19 20  1  0  0  0  0
 19 39  1  0  0  0  0
 19 40  1  0  0  0  0
 20 21  1  0  0  0  0
 20 22  1  0  0  0  0
 22 23  2  0  0  0  0
 22 51  1  0  0  0  0
 24 25  1  0  0  0  0
 24 41  1  0  0  0  0
 24 42  1  0  0  0  0
 25 26  1  0  0  0  0
 25 43  1  0  0  0  0
 25 44  1  0  0  0  0
 26 27  1  0  0  0  0
 26 45  1  0  0  0  0
 26 46  1  0  0  0  0
 27 28  1  0  0  0  0
 27 47  1  0  0  0  0
 27 48  1  0  0  0  0
 28 49  1  0  0  0  0
 28 50  1  0  0  0  0
M  CHG  1  51  -1
M  END
$$$$
ZINC02486398
  -OEChem-08230709463D

 51 53  0     1  0  0  0  0  0999 V2000
   -2.6771    8.2817    0.6892 C   0  0  0  0  0  0  0  0  0  0  0  0
   -1.6331    7.8623   -0.3475 C   0  0  0  0  0  0  0  0  0  0  0  0
   -2.1448    6.7491   -1.1268 O   0  0  0  0  0  0  0  0  0  0  0  0
   -1.3410    6.2560   -2.0912 C   0  0  0  0  0  0  0  0  0  0  0  0
   -0.2420    6.7438   -2.2753 O   0  0  0  0  0  0  0  0  0  0  0  0
   -1.7913    5.1334   -2.9166 C   0  0  0  0  0  0  0  0  0  0  0  0
   -2.5116    5.3558   -4.1636 C   0  0  0  0  0  0  0  0  0  0  0  0
   -2.8804    4.2332   -4.8160 C   0  0  0  0  0  0  0  0  0  0  0  0
   -2.2718    2.9030   -3.8154 S   0  0  0  0  0  0  0  0  0  0  0  0
   -1.5437    3.8216   -2.5405 C   0  0  0  0  0  0  0  0  0  0  0  0
   -0.8801    3.3584   -1.4152 N   0  0  0  0  0  0  0  0  0  0  0  0
   -0.7401    2.0333   -1.2131 C   0  0  0  0  0  0  0  0  0  0  0  0
   -1.1948    1.2461   -2.0159 O   0  0  0  0  0  0  0  0  0  0  0  0
   -0.0187    1.5297    0.0105 C   0  0  2  0  0  0  0  0  0  0  0  0
   -0.5235    1.8843    0.9091 H   0  0  0  0  0  0  0  0  0  0  0  0
    1.4262    2.0334   -0.0006 C   0  0  0  0  0  0  0  0  0  0  0  0
    2.2260    1.3327    1.0583 C   0  0  0  0  0  0  0  0  0  0  0  0
    1.8593    0.2338    1.6359 C   0  0  0  0  0  0  0  0  0  0  0  0
    0.5784   -0.4876    1.3345 C   0  0  0  0  0  0  0  0  0  0  0  0
    0.0021   -0.0041    0.0020 C   0  0  1  0  0  0  0  0  0  0  0  0
    0.6277   -0.3575   -0.8176 H   0  0  0  0  0  0  0  0  0  0  0  0
   -1.4003   -0.5288   -0.1685 C   0  0  0  0  0  0  0  0  0  0  0  0
   -2.3251    0.2418   -0.2731 O   0  0  0  0  0  0  0  0  0  0  0  0
   -3.6506    4.1287   -6.0952 C   0  0  0  0  0  0  0  0  0  0  0  0
   -3.0279    5.0660   -7.1388 C   0  0  0  0  0  0  0  0  0  0  0  0
   -3.6951    6.4327   -7.0192 C   0  0  0  0  0  0  0  0  0  0  0  0
   -4.0736    6.7074   -5.5652 C   0  0  0  0  0  0  0  0  0  0  0  0
   -2.8266    6.7509   -4.6890 C   0  0  0  0  0  0  0  0  0  0  0  0
   -2.2930    9.1173    1.2742 H   0  0  0  0  0  0  0  0  0  0  0  0
   -3.5926    8.5844    0.1810 H   0  0  0  0  0  0  0  0  0  0  0  0
   -2.8896    7.4421    1.3511 H   0  0  0  0  0  0  0  0  0  0  0  0
   -0.7176    7.5596    0.1607 H   0  0  0  0  0  0  0  0  0  0  0  0
   -1.4206    8.7019   -1.0094 H   0  0  0  0  0  0  0  0  0  0  0  0
   -0.5165    3.9880   -0.7730 H   0  0  0  0  0  0  0  0  0  0  0  0
    1.8695    1.8377   -0.9770 H   0  0  0  0  0  0  0  0  0  0  0  0
    1.4362    3.1066    0.1899 H   0  0  0  0  0  0  0  0  0  0  0  0
    3.1662    1.7724    1.3568 H   0  0  0  0  0  0  0  0  0  0  0  0
    2.5159   -0.1900    2.3813 H   0  0  0  0  0  0  0  0  0  0  0  0
   -0.1408   -0.2947    2.1305 H   0  0  0  0  0  0  0  0  0  0  0  0
    0.7719   -1.5588    1.2771 H   0  0  0  0  0  0  0  0  0  0  0  0
   -3.6133    3.1022   -6.4598 H   0  0  0  0  0  0  0  0  0  0  0  0
   -4.6873    4.4162   -5.9204 H   0  0  0  0  0  0  0  0  0  0  0  0
   -3.1938    4.6635   -8.1381 H   0  0  0  0  0  0  0  0  0  0  0  0
   -1.9584    5.1629   -6.9524 H   0  0  0  0  0  0  0  0  0  0  0  0
   -4.5934    6.4515   -7.6362 H   0  0  0  0  0  0  0  0  0  0  0  0
   -3.0037    7.2016   -7.3640 H   0  0  0  0  0  0  0  0  0  0  0  0
   -4.7362    5.9181   -5.2100 H   0  0  0  0  0  0  0  0  0  0  0  0
   -4.5918    7.6642   -5.5023 H   0  0  0  0  0  0  0  0  0  0  0  0
   -2.9978    7.4240   -3.8489 H   0  0  0  0  0  0  0  0  0  0  0  0
   -1.9839    7.1151   -5.2767 H   0  0  0  0  0  0  0  0  0  0  0  0
   -1.6220   -1.8521   -0.2043 O   0  5  0  0  0  0  0  0  0  0  0  0
  1  2  1  0  0  0  0
  1 29  1  0  0  0  0
  1 30  1  0  0  0  0
  1 31  1  0  0  0  0
  2  3  1  0  0  0  0
  2 32  1  0  0  0  0
  2 33  1  0  0  0  0
  3  4  1  0  0  0  0
  4  5  2  0  0  0  0
  4  6  1  0  0  0  0
  6 10  2  0  0  0  0
  6  7  1  0  0  0  0
  7 28  1  0  0  0  0
  7  8  2  0  0  0  0
  8  9  1  0  0  0  0
  8 24  1  0  0  0  0
  9 10  1  0  0  0  0
 10 11  1  0  0  0  0
 11 12  1  0  0  0  0
 11 34  1  0  0  0  0
 12 13  2  0  0  0  0
 12 14  1  0  0  0  0
 14 15  1  0  0  0  0
 14 20  1  0  0  0  0
 14 16  1  0  0  0  0
 16 17  1  0  0  0  0
 16 35  1  0  0  0  0
 16 36  1  0  0  0  0
 17 18  2  0  0  0  0
 17 37  1  0  0  0  0
 18 19  1  0  0  0  0
 18 38  1  0  0  0  0
 19 20  1  0  0  0  0
 19 39  1  0  0  0  0
 19 40  1  0  0  0  0
 20 21  1  0  0  0  0
 20 22  1  0  0  0  0
 22 23  2  0  0  0  0
 22 51  1  0  0  0  0
 24 25  1  0  0  0  0
 24 41  1  0  0  0  0
 24 42  1  0  0  0  0
 25 26  1  0  0  0  0
 25 43  1  0  0  0  0
 25 44  1  0  0  0  0
 26 27  1  0  0  0  0
 26 45  1  0  0  0  0
 26 46  1  0  0  0  0
 27 28  1  0  0  0  0
 27 47  1  0  0  0  0
 27 48  1  0  0  0  0
 28 49  1  0  0  0  0
 28 50  1  0  0  0  0
M  CHG  1  51  -1
M  END
$$$$
ZINC02486411
  -OEChem-08230709463D

 55 58  0     1  0  0  0  0  0999 V2000
   -2.6607    6.2311    4.0023 C   0  0  0  0  0  0  0  0  0  0  0  0
   -1.6378    5.3306    4.6979 C   0  0  0  0  0  0  0  0  0  0  0  0
   -1.6546    4.0149    4.0839 O   0  0  0  0  0  0  0  0  0  0  0  0
   -0.8046    3.0948    4.5841 C   0  0  0  0  0  0  0  0  0  0  0  0
   -0.0694    3.3851    5.5086 O   0  0  0  0  0  0  0  0  0  0  0  0
   -0.7669    1.7464    4.0141 C   0  0  0  0  0  0  0  0  0  0  0  0
    0.1358    1.4242    2.9022 C   0  0  0  0  0  0  0  0  0  0  0  0
    0.0078    0.1651    2.4447 C   0  0  0  0  0  0  0  0  0  0  0  0
   -1.1866   -0.6080    3.5042 S   0  0  0  0  0  0  0  0  0  0  0  0
   -1.5803    0.7441    4.5099 C   0  0  0  0  0  0  0  0  0  0  0  0
   -2.4876    0.8068    5.5559 N   0  0  0  0  0  0  0  0  0  0  0  0
   -3.1978   -0.2863    5.8983 C   0  0  0  0  0  0  0  0  0  0  0  0
   -3.0431   -1.3248    5.2912 O   0  0  0  0  0  0  0  0  0  0  0  0
   -4.1843   -0.2182    7.0355 C   0  0  2  0  0  0  0  0  0  0  0  0
   -3.6822    0.0663    7.9603 H   0  0  0  0  0  0  0  0  0  0  0  0
   -4.9189   -1.5858    7.2079 C   0  0  1  0  0  0  0  0  0  0  0  0
   -4.3566   -2.3767    7.7042 H   0  0  0  0  0  0  0  0  0  0  0  0
   -6.2533   -1.1050    7.8911 C   0  0  0  0  0  0  0  0  0  0  0  0
   -6.6074   -0.1161    6.7208 C   0  0  1  0  0  0  0  0  0  0  0  0
   -7.5605    0.4094    6.7807 H   0  0  0  0  0  0  0  0  0  0  0  0
   -5.3252    0.7758    6.7076 C   0  0  1  0  0  0  0  0  0  0  0  0
   -5.1751    1.2205    5.7238 H   0  0  0  0  0  0  0  0  0  0  0  0
   -5.4143    1.8472    7.7636 C   0  0  0  0  0  0  0  0  0  0  0  0
   -4.6496    1.8386    8.6990 O   0  0  0  0  0  0  0  0  0  0  0  0
   -6.4219   -1.0538    5.5215 C   0  0  0  0  0  0  0  0  0  0  0  0
   -5.4507   -1.8999    5.8007 C   0  0  0  0  0  0  0  0  0  0  0  0
    0.7081   -0.4822    1.2837 C   0  0  0  0  0  0  0  0  0  0  0  0
    0.0021   -0.0041    0.0020 C   0  0  0  0  0  0  0  0  0  0  0  0
   -0.0187    1.5286    0.0104 C   0  0  0  0  0  0  0  0  0  0  0  0
    1.4359    1.9510   -0.0012 C   0  0  0  0  0  0  0  0  0  0  0  0
    2.0855    1.9572    1.3711 C   0  0  0  0  0  0  0  0  0  0  0  0
    1.1454    2.4778    2.4504 C   0  0  0  0  0  0  0  0  0  0  0  0
   -2.6480    7.2187    4.4632 H   0  0  0  0  0  0  0  0  0  0  0  0
   -2.4076    6.3199    2.9458 H   0  0  0  0  0  0  0  0  0  0  0  0
   -3.6551    5.7961    4.1024 H   0  0  0  0  0  0  0  0  0  0  0  0
   -1.8909    5.2418    5.7543 H   0  0  0  0  0  0  0  0  0  0  0  0
   -0.6434    5.7655    4.5978 H   0  0  0  0  0  0  0  0  0  0  0  0
   -2.6114    1.6373    6.0414 H   0  0  0  0  0  0  0  0  0  0  0  0
   -6.0747   -0.5888    8.8343 H   0  0  0  0  0  0  0  0  0  0  0  0
   -6.9828   -1.9084    7.9940 H   0  0  0  0  0  0  0  0  0  0  0  0
   -6.9906   -1.0256    4.6039 H   0  0  0  0  0  0  0  0  0  0  0  0
   -5.0885   -2.6824    5.1504 H   0  0  0  0  0  0  0  0  0  0  0  0
    0.6360   -1.5668    1.3646 H   0  0  0  0  0  0  0  0  0  0  0  0
    1.7553   -0.1804    1.2652 H   0  0  0  0  0  0  0  0  0  0  0  0
   -1.0187   -0.3856   -0.0197 H   0  0  0  0  0  0  0  0  0  0  0  0
    0.5469   -0.3597   -0.8725 H   0  0  0  0  0  0  0  0  0  0  0  0
   -0.5276    1.9039   -0.8774 H   0  0  0  0  0  0  0  0  0  0  0  0
   -0.5106    1.8943    0.9118 H   0  0  0  0  0  0  0  0  0  0  0  0
    1.9908    1.2690   -0.6454 H   0  0  0  0  0  0  0  0  0  0  0  0
    1.5032    2.9541   -0.4222 H   0  0  0  0  0  0  0  0  0  0  0  0
    2.9727    2.5896    1.3397 H   0  0  0  0  0  0  0  0  0  0  0  0
    2.3853    0.9401    1.6237 H   0  0  0  0  0  0  0  0  0  0  0  0
    0.6048    3.3406    2.0613 H   0  0  0  0  0  0  0  0  0  0  0  0
    1.7359    2.7925    3.3109 H   0  0  0  0  0  0  0  0  0  0  0  0
   -6.3432    2.8112    7.6651 O   0  5  0  0  0  0  0  0  0  0  0  0
  1  2  1  0  0  0  0
  1 33  1  0  0  0  0
  1 34  1  0  0  0  0
  1 35  1  0  0  0  0
  2  3  1  0  0  0  0
  2 36  1  0  0  0  0
  2 37  1  0  0  0  0
  3  4  1  0  0  0  0
  4  5  2  0  0  0  0
  4  6  1  0  0  0  0
  6 10  2  0  0  0  0
  6  7  1  0  0  0  0
  7 32  1  0  0  0  0
  7  8  2  0  0  0  0
  8  9  1  0  0  0  0
  8 27  1  0  0  0  0
  9 10  1  0  0  0  0
 10 11  1  0  0  0  0
 11 12  1  0  0  0  0
 11 38  1  0  0  0  0
 12 13  2  0  0  0  0
 12 14  1  0  0  0  0
 14 15  1  0  0  0  0
 14 21  1  0  0  0  0
 14 16  1  0  0  0  0
 16 17  1  0  0  0  0
 16 26  1  0  0  0  0
 16 18  1  0  0  0  0
 18 19  1  0  0  0  0
 18 39  1  0  0  0  0
 18 40  1  0  0  0  0
 19 20  1  0  0  0  0
 19 21  1  0  0  0  0
 19 25  1  0  0  0  0
 21 22  1  0  0  0  0
 21 23  1  0  0  0  0
 23 24  2  0  0  0  0
 23 55  1  0  0  0  0
 25 26  2  0  0  0  0
 25 41  1  0  0  0  0
 26 42  1  0  0  0  0
 27 28  1  0  0  0  0
 27 43  1  0  0  0  0
 27 44  1  0  0  0  0
 28 29  1  0  0  0  0
 28 45  1  0  0  0  0
 28 46  1  0  0  0  0
 29 30  1  0  0  0  0
 29 47  1  0  0  0  0
 29 48  1  0  0  0  0
 30 31  1  0  0  0  0
 30 49  1  0  0  0  0
 30 50  1  0  0  0  0
 31 32  1  0  0  0  0
 31 51  1  0  0  0  0
 31 52  1  0  0  0  0
 32 53  1  0  0  0  0
 32 54  1  0  0  0  0
M  CHG  1  55  -1
M  END
$$$$
ZINC02486547
  -OEChem-08230709463D

 54 56  0     1  0  0  0  0  0999 V2000
   10.2837   -1.6427   -1.2103 C   0  0  0  0  0  0  0  0  0  0  0  0
    9.0964   -1.2176   -2.0765 C   0  0  0  0  0  0  0  0  0  0  0  0
    7.9136   -2.1522   -1.8147 C   0  0  0  0  0  0  0  0  0  0  0  0
    6.7868   -1.7487   -2.6368 O   0  0  0  0  0  0  0  0  0  0  0  0
    5.6559   -2.4753   -2.5248 C   0  0  0  0  0  0  0  0  0  0  0  0
    5.6135   -3.4206   -1.7604 O   0  0  0  0  0  0  0  0  0  0  0  0
    4.4792   -2.1261   -3.3235 C   0  0  0  0  0  0  0  0  0  0  0  0
    4.2659   -2.7042   -4.6439 C   0  0  0  0  0  0  0  0  0  0  0  0
    3.1485   -2.2847   -5.2750 C   0  0  0  0  0  0  0  0  0  0  0  0
    2.3799   -1.1590   -4.1425 S   0  0  0  0  0  0  0  0  0  0  0  0
    3.5274   -1.2365   -2.8477 C   0  0  0  0  0  0  0  0  0  0  0  0
    3.5036   -0.5677   -1.6339 N   0  0  0  0  0  0  0  0  0  0  0  0
    2.4884    0.2709   -1.3464 C   0  0  0  0  0  0  0  0  0  0  0  0
    1.5957    0.4402   -2.1497 O   0  0  0  0  0  0  0  0  0  0  0  0
    2.4625    0.9980   -0.0267 C   0  0  1  0  0  0  0  0  0  0  0  0
    3.4672    1.0279    0.3950 H   0  0  0  0  0  0  0  0  0  0  0  0
    1.9446    2.4229   -0.2346 C   0  0  0  0  0  0  0  0  0  0  0  0
    0.4806    2.3979   -0.5632 C   0  0  0  0  0  0  0  0  0  0  0  0
   -0.2937    1.3831   -0.3486 C   0  0  0  0  0  0  0  0  0  0  0  0
    0.1641    0.0862    0.2543 C   0  0  0  0  0  0  0  0  0  0  0  0
    1.5180    0.2751    0.9419 C   0  0  1  0  0  0  0  0  0  0  0  0
    1.3904    0.8732    1.8442 H   0  0  0  0  0  0  0  0  0  0  0  0
    2.0948   -1.0696    1.3029 C   0  0  0  0  0  0  0  0  0  0  0  0
    3.1567   -1.4150    0.8415 O   0  0  0  0  0  0  0  0  0  0  0  0
    2.6684   -2.6710   -6.6391 C   0  0  0  0  0  0  0  0  0  0  0  0
    2.7120   -4.1986   -6.7779 C   0  0  0  0  0  0  0  0  0  0  0  0
    4.0857   -4.5953   -7.3095 C   0  0  0  0  0  0  0  0  0  0  0  0
    5.1500   -3.6333   -6.7855 C   0  0  0  0  0  0  0  0  0  0  0  0
    5.2310   -3.7064   -5.2647 C   0  0  0  0  0  0  0  0  0  0  0  0
   11.1264   -0.9769   -1.3967 H   0  0  0  0  0  0  0  0  0  0  0  0
   10.0038   -1.5886   -0.1582 H   0  0  0  0  0  0  0  0  0  0  0  0
   10.5670   -2.6655   -1.4588 H   0  0  0  0  0  0  0  0  0  0  0  0
    9.3763   -1.2717   -3.1285 H   0  0  0  0  0  0  0  0  0  0  0  0
    8.8131   -0.1948   -1.8280 H   0  0  0  0  0  0  0  0  0  0  0  0
    7.6337   -2.0981   -0.7627 H   0  0  0  0  0  0  0  0  0  0  0  0
    8.1968   -3.1750   -2.0632 H   0  0  0  0  0  0  0  0  0  0  0  0
    4.2175   -0.7032   -0.9914 H   0  0  0  0  0  0  0  0  0  0  0  0
    2.1006    3.0006    0.6765 H   0  0  0  0  0  0  0  0  0  0  0  0
    2.4892    2.8891   -1.0556 H   0  0  0  0  0  0  0  0  0  0  0  0
    0.0460    3.2816   -1.0067 H   0  0  0  0  0  0  0  0  0  0  0  0
   -1.3357    1.4754   -0.6171 H   0  0  0  0  0  0  0  0  0  0  0  0
    0.2599   -0.6613   -0.5331 H   0  0  0  0  0  0  0  0  0  0  0  0
   -0.5684   -0.2547    0.9861 H   0  0  0  0  0  0  0  0  0  0  0  0
    1.6450   -2.3221   -6.7769 H   0  0  0  0  0  0  0  0  0  0  0  0
    3.3124   -2.2185   -7.3931 H   0  0  0  0  0  0  0  0  0  0  0  0
    2.5479   -4.6605   -5.8043 H   0  0  0  0  0  0  0  0  0  0  0  0
    1.9399   -4.5260   -7.4742 H   0  0  0  0  0  0  0  0  0  0  0  0
    4.3213   -5.6080   -6.9821 H   0  0  0  0  0  0  0  0  0  0  0  0
    4.0753   -4.5610   -8.3989 H   0  0  0  0  0  0  0  0  0  0  0  0
    6.1175   -3.8996   -7.2112 H   0  0  0  0  0  0  0  0  0  0  0  0
    4.8936   -2.6161   -7.0816 H   0  0  0  0  0  0  0  0  0  0  0  0
    4.9690   -4.7122   -4.9363 H   0  0  0  0  0  0  0  0  0  0  0  0
    6.2468   -3.4743   -4.9448 H   0  0  0  0  0  0  0  0  0  0  0  0
    1.4262   -1.8858    2.1327 O   0  5  0  0  0  0  0  0  0  0  0  0
  1  2  1  0  0  0  0
  1 30  1  0  0  0  0
  1 31  1  0  0  0  0
  1 32  1  0  0  0  0
  2  3  1  0  0  0  0
  2 33  1  0  0  0  0
  2 34  1  0  0  0  0
  3  4  1  0  0  0  0
  3 35  1  0  0  0  0
  3 36  1  0  0  0  0
  4  5  1  0  0  0  0
  5  6  2  0  0  0  0
  5  7  1  0  0  0  0
  7 11  2  0  0  0  0
  7  8  1  0  0  0  0
  8 29  1  0  0  0  0
  8  9  2  0  0  0  0
  9 10  1  0  0  0  0
  9 25  1  0  0  0  0
 10 11  1  0  0  0  0
 11 12  1  0  0  0  0
 12 13  1  0  0  0  0
 12 37  1  0  0  0  0
 13 14  2  0  0  0  0
 13 15  1  0  0  0  0
 15 16  1  0  0  0  0
 15 21  1  0  0  0  0
 15 17  1  0  0  0  0
 17 18  1  0  0  0  0
 17 38  1  0  0  0  0
 17 39  1  0  0  0  0
 18 19  2  0  0  0  0
 18 40  1  0  0  0  0
 19 20  1  0  0  0  0
 19 41  1  0  0  0  0
 20 21  1  0  0  0  0
 20 42  1  0  0  0  0
 20 43  1  0  0  0  0
 21 22  1  0  0  0  0
 21 23  1  0  0  0  0
 23 24  2  0  0  0  0
 23 54  1  0  0  0  0
 25 26  1  0  0  0  0
 25 44  1  0  0  0  0
 25 45  1  0  0  0  0
 26 27  1  0  0  0  0
 26 46  1  0  0  0  0
 26 47  1  0  0  0  0
 27 28  1  0  0  0  0
 27 48  1  0  0  0  0
 27 49  1  0  0  0  0
 28 29  1  0  0  0  0
 28 50  1  0  0  0  0
 28 51  1  0  0  0  0
 29 52  1  0  0  0  0
 29 53  1  0  0  0  0
M  CHG  1  54  -1
M  END
$$$$
ZINC02486548
  -OEChem-08230709463D

 54 56  0     1  0  0  0  0  0999 V2000
   -2.1379    9.4547    1.5104 C   0  0  0  0  0  0  0  0  0  0  0  0
   -2.6771    8.2817    0.6892 C   0  0  0  0  0  0  0  0  0  0  0  0
   -1.6331    7.8623   -0.3475 C   0  0  0  0  0  0  0  0  0  0  0  0
   -2.1448    6.7491   -1.1268 O   0  0  0  0  0  0  0  0  0  0  0  0
   -1.3410    6.2560   -2.0912 C   0  0  0  0  0  0  0  0  0  0  0  0
   -0.2420    6.7438   -2.2753 O   0  0  0  0  0  0  0  0  0  0  0  0
   -1.7913    5.1334   -2.9166 C   0  0  0  0  0  0  0  0  0  0  0  0
   -2.5116    5.3558   -4.1636 C   0  0  0  0  0  0  0  0  0  0  0  0
   -2.8804    4.2332   -4.8160 C   0  0  0  0  0  0  0  0  0  0  0  0
   -2.2718    2.9030   -3.8154 S   0  0  0  0  0  0  0  0  0  0  0  0
   -1.5437    3.8216   -2.5405 C   0  0  0  0  0  0  0  0  0  0  0  0
   -0.8801    3.3584   -1.4152 N   0  0  0  0  0  0  0  0  0  0  0  0
   -0.7401    2.0333   -1.2131 C   0  0  0  0  0  0  0  0  0  0  0  0
   -1.1948    1.2461   -2.0159 O   0  0  0  0  0  0  0  0  0  0  0  0
   -0.0187    1.5297    0.0105 C   0  0  2  0  0  0  0  0  0  0  0  0
   -0.5235    1.8843    0.9091 H   0  0  0  0  0  0  0  0  0  0  0  0
    1.4262    2.0334   -0.0006 C   0  0  0  0  0  0  0  0  0  0  0  0
    2.2260    1.3327    1.0583 C   0  0  0  0  0  0  0  0  0  0  0  0
    1.8593    0.2338    1.6359 C   0  0  0  0  0  0  0  0  0  0  0  0
    0.5784   -0.4876    1.3345 C   0  0  0  0  0  0  0  0  0  0  0  0
    0.0021   -0.0041    0.0020 C   0  0  1  0  0  0  0  0  0  0  0  0
    0.6277   -0.3575   -0.8176 H   0  0  0  0  0  0  0  0  0  0  0  0
   -1.4003   -0.5288   -0.1685 C   0  0  0  0  0  0  0  0  0  0  0  0
   -2.3251    0.2418   -0.2731 O   0  0  0  0  0  0  0  0  0  0  0  0
   -3.6506    4.1287   -6.0952 C   0  0  0  0  0  0  0  0  0  0  0  0
   -3.0279    5.0660   -7.1388 C   0  0  0  0  0  0  0  0  0  0  0  0
   -3.6951    6.4327   -7.0192 C   0  0  0  0  0  0  0  0  0  0  0  0
   -4.0736    6.7074   -5.5652 C   0  0  0  0  0  0  0  0  0  0  0  0
   -2.8266    6.7509   -4.6890 C   0  0  0  0  0  0  0  0  0  0  0  0
   -1.9254   10.2943    0.8485 H   0  0  0  0  0  0  0  0  0  0  0  0
   -2.8818    9.7535    2.2490 H   0  0  0  0  0  0  0  0  0  0  0  0
   -1.2224    9.1519    2.0186 H   0  0  0  0  0  0  0  0  0  0  0  0
   -3.5926    8.5844    0.1810 H   0  0  0  0  0  0  0  0  0  0  0  0
   -2.8896    7.4421    1.3511 H   0  0  0  0  0  0  0  0  0  0  0  0
   -0.7176    7.5596    0.1607 H   0  0  0  0  0  0  0  0  0  0  0  0
   -1.4206    8.7019   -1.0094 H   0  0  0  0  0  0  0  0  0  0  0  0
   -0.5165    3.9880   -0.7730 H   0  0  0  0  0  0  0  0  0  0  0  0
    1.8695    1.8377   -0.9770 H   0  0  0  0  0  0  0  0  0  0  0  0
    1.4362    3.1066    0.1899 H   0  0  0  0  0  0  0  0  0  0  0  0
    3.1662    1.7724    1.3568 H   0  0  0  0  0  0  0  0  0  0  0  0
    2.5159   -0.1900    2.3813 H   0  0  0  0  0  0  0  0  0  0  0  0
   -0.1408   -0.2947    2.1305 H   0  0  0  0  0  0  0  0  0  0  0  0
    0.7719   -1.5588    1.2771 H   0  0  0  0  0  0  0  0  0  0  0  0
   -3.6133    3.1022   -6.4598 H   0  0  0  0  0  0  0  0  0  0  0  0
   -4.6873    4.4162   -5.9204 H   0  0  0  0  0  0  0  0  0  0  0  0
   -3.1938    4.6635   -8.1381 H   0  0  0  0  0  0  0  0  0  0  0  0
   -1.9584    5.1629   -6.9524 H   0  0  0  0  0  0  0  0  0  0  0  0
   -4.5934    6.4515   -7.6362 H   0  0  0  0  0  0  0  0  0  0  0  0
   -3.0037    7.2016   -7.3640 H   0  0  0  0  0  0  0  0  0  0  0  0
   -4.7362    5.9181   -5.2100 H   0  0  0  0  0  0  0  0  0  0  0  0
   -4.5918    7.6642   -5.5023 H   0  0  0  0  0  0  0  0  0  0  0  0
   -2.9978    7.4240   -3.8489 H   0  0  0  0  0  0  0  0  0  0  0  0
   -1.9839    7.1151   -5.2767 H   0  0  0  0  0  0  0  0  0  0  0  0
   -1.6220   -1.8521   -0.2043 O   0  5  0  0  0  0  0  0  0  0  0  0
  1  2  1  0  0  0  0
  1 30  1  0  0  0  0
  1 31  1  0  0  0  0
  1 32  1  0  0  0  0
  2  3  1  0  0  0  0
  2 33  1  0  0  0  0
  2 34  1  0  0  0  0
  3  4  1  0  0  0  0
  3 35  1  0  0  0  0
  3 36  1  0  0  0  0
  4  5  1  0  0  0  0
  5  6  2  0  0  0  0
  5  7  1  0  0  0  0
  7 11  2  0  0  0  0
  7  8  1  0  0  0  0
  8 29  1  0  0  0  0
  8  9  2  0  0  0  0
  9 10  1  0  0  0  0
  9 25  1  0  0  0  0
 10 11  1  0  0  0  0
 11 12  1  0  0  0  0
 12 13  1  0  0  0  0
 12 37  1  0  0  0  0
 13 14  2  0  0  0  0
 13 15  1  0  0  0  0
 15 16  1  0  0  0  0
 15 21  1  0  0  0  0
 15 17  1  0  0  0  0
 17 18  1  0  0  0  0
 17 38  1  0  0  0  0
 17 39  1  0  0  0  0
 18 19  2  0  0  0  0
 18 40  1  0  0  0  0
 19 20  1  0  0  0  0
 19 41  1  0  0  0  0
 20 21  1  0  0  0  0
 20 42  1  0  0  0  0
 20 43  1  0  0  0  0
 21 22  1  0  0  0  0
 21 23  1  0  0  0  0
 23 24  2  0  0  0  0
 23 54  1  0  0  0  0
 25 26  1  0  0  0  0
 25 44  1  0  0  0  0
 25 45  1  0  0  0  0
 26 27  1  0  0  0  0
 26 46  1  0  0  0  0
 26 47  1  0  0  0  0
 27 28  1  0  0  0  0
 27 48  1  0  0  0  0
 27 49  1  0  0  0  0
 28 29  1  0  0  0  0
 28 50  1  0  0  0  0
 28 51  1  0  0  0  0
 29 52  1  0  0  0  0
 29 53  1  0  0  0  0
M  CHG  1  54  -1
M  END
$$$$
ZINC02486550
  -OEChem-08230709463D

 54 56  0     1  0  0  0  0  0999 V2000
   -3.6070    2.1580    9.0823 C   0  0  0  0  0  0  0  0  0  0  0  0
   -3.9161    1.3442    7.8241 C   0  0  0  0  0  0  0  0  0  0  0  0
   -4.3237    2.2898    6.6924 C   0  0  0  0  0  0  0  0  0  0  0  0
   -4.6171    1.5175    5.4984 O   0  0  0  0  0  0  0  0  0  0  0  0
   -4.9946    2.2056    4.4014 C   0  0  0  0  0  0  0  0  0  0  0  0
   -5.0761    3.4186    4.4425 O   0  0  0  0  0  0  0  0  0  0  0  0
   -5.3062    1.4924    3.1610 C   0  0  0  0  0  0  0  0  0  0  0  0
   -6.6592    1.0331    2.8750 C   0  0  0  0  0  0  0  0  0  0  0  0
   -6.8035    0.3827    1.7014 C   0  0  0  0  0  0  0  0  0  0  0  0
   -5.1883    0.3938    0.9720 S   0  0  0  0  0  0  0  0  0  0  0  0
   -4.3240    1.2311    2.2174 C   0  0  0  0  0  0  0  0  0  0  0  0
   -2.9792    1.5643    2.2584 N   0  0  0  0  0  0  0  0  0  0  0  0
   -2.1688    1.2228    1.2370 C   0  0  0  0  0  0  0  0  0  0  0  0
   -2.6163    0.6239    0.2821 O   0  0  0  0  0  0  0  0  0  0  0  0
   -0.7067    1.5851    1.2816 C   0  0  1  0  0  0  0  0  0  0  0  0
   -0.5963    2.6667    1.3591 H   0  0  0  0  0  0  0  0  0  0  0  0
   -0.0467    0.9125    2.4875 C   0  0  0  0  0  0  0  0  0  0  0  0
    1.4456    1.0437    2.3997 C   0  0  0  0  0  0  0  0  0  0  0  0
    2.0845    1.3468    1.3154 C   0  0  0  0  0  0  0  0  0  0  0  0
    1.4213    1.6198   -0.0028 C   0  0  0  0  0  0  0  0  0  0  0  0
   -0.0127    1.0858    0.0080 C   0  0  2  0  0  0  0  0  0  0  0  0
    0.0021   -0.0041    0.0020 H   0  0  0  0  0  0  0  0  0  0  0  0
   -0.7498    1.5891   -1.2063 C   0  0  0  0  0  0  0  0  0  0  0  0
   -1.7385    2.2708   -1.0733 O   0  0  0  0  0  0  0  0  0  0  0  0
   -8.0518   -0.2178    1.1342 C   0  0  0  0  0  0  0  0  0  0  0  0
   -9.1889    0.8094    1.2158 C   0  0  0  0  0  0  0  0  0  0  0  0
   -9.8940    0.6446    2.5585 C   0  0  0  0  0  0  0  0  0  0  0  0
   -8.8929    0.2125    3.6282 C   0  0  0  0  0  0  0  0  0  0  0  0
   -7.8252    1.2833    3.8235 C   0  0  0  0  0  0  0  0  0  0  0  0
   -4.4932    2.7190    9.3790 H   0  0  0  0  0  0  0  0  0  0  0  0
   -3.3166    1.4843    9.8885 H   0  0  0  0  0  0  0  0  0  0  0  0
   -2.7910    2.8505    8.8757 H   0  0  0  0  0  0  0  0  0  0  0  0
   -4.7322    0.6517    8.0306 H   0  0  0  0  0  0  0  0  0  0  0  0
   -3.0299    0.7832    7.5273 H   0  0  0  0  0  0  0  0  0  0  0  0
   -3.5077    2.9823    6.4859 H   0  0  0  0  0  0  0  0  0  0  0  0
   -5.2100    2.8508    6.9892 H   0  0  0  0  0  0  0  0  0  0  0  0
   -2.6212    2.0433    3.0222 H   0  0  0  0  0  0  0  0  0  0  0  0
   -0.3162   -0.1435    2.5048 H   0  0  0  0  0  0  0  0  0  0  0  0
   -0.3982    1.3901    3.4020 H   0  0  0  0  0  0  0  0  0  0  0  0
    2.0225    0.8743    3.2968 H   0  0  0  0  0  0  0  0  0  0  0  0
    3.1618    1.4067    1.3624 H   0  0  0  0  0  0  0  0  0  0  0  0
    1.9832    1.1301   -0.7982 H   0  0  0  0  0  0  0  0  0  0  0  0
    1.4052    2.6950   -0.1811 H   0  0  0  0  0  0  0  0  0  0  0  0
   -8.3213   -1.1056    1.7064 H   0  0  0  0  0  0  0  0  0  0  0  0
   -7.8832   -0.4923    0.0929 H   0  0  0  0  0  0  0  0  0  0  0  0
   -9.8978    0.6361    0.4062 H   0  0  0  0  0  0  0  0  0  0  0  0
   -8.7821    1.8175    1.1370 H   0  0  0  0  0  0  0  0  0  0  0  0
  -10.6738   -0.1115    2.4669 H   0  0  0  0  0  0  0  0  0  0  0  0
  -10.3439    1.5945    2.8473 H   0  0  0  0  0  0  0  0  0  0  0  0
   -8.4171   -0.7189    3.3211 H   0  0  0  0  0  0  0  0  0  0  0  0
   -9.4208    0.0544    4.5686 H   0  0  0  0  0  0  0  0  0  0  0  0
   -7.4673    1.2541    4.8527 H   0  0  0  0  0  0  0  0  0  0  0  0
   -8.2555    2.2634    3.6175 H   0  0  0  0  0  0  0  0  0  0  0  0
   -0.3080    1.2800   -2.4355 O   0  5  0  0  0  0  0  0  0  0  0  0
  1  2  1  0  0  0  0
  1 30  1  0  0  0  0
  1 31  1  0  0  0  0
  1 32  1  0  0  0  0
  2  3  1  0  0  0  0
  2 33  1  0  0  0  0
  2 34  1  0  0  0  0
  3  4  1  0  0  0  0
  3 35  1  0  0  0  0
  3 36  1  0  0  0  0
  4  5  1  0  0  0  0
  5  6  2  0  0  0  0
  5  7  1  0  0  0  0
  7 11  2  0  0  0  0
  7  8  1  0  0  0  0
  8 29  1  0  0  0  0
  8  9  2  0  0  0  0
  9 10  1  0  0  0  0
  9 25  1  0  0  0  0
 10 11  1  0  0  0  0
 11 12  1  0  0  0  0
 12 13  1  0  0  0  0
 12 37  1  0  0  0  0
 13 14  2  0  0  0  0
 13 15  1  0  0  0  0
 15 16  1  0  0  0  0
 15 21  1  0  0  0  0
 15 17  1  0  0  0  0
 17 18  1  0  0  0  0
 17 38  1  0  0  0  0
 17 39  1  0  0  0  0
 18 19  2  0  0  0  0
 18 40  1  0  0  0  0
 19 20  1  0  0  0  0
 19 41  1  0  0  0  0
 20 21  1  0  0  0  0
 20 42  1  0  0  0  0
 20 43  1  0  0  0  0
 21 22  1  0  0  0  0
 21 23  1  0  0  0  0
 23 24  2  0  0  0  0
 23 54  1  0  0  0  0
 25 26  1  0  0  0  0
 25 44  1  0  0  0  0
 25 45  1  0  0  0  0
 26 27  1  0  0  0  0
 26 46  1  0  0  0  0
 26 47  1  0  0  0  0
 27 28  1  0  0  0  0
 27 48  1  0  0  0  0
 27 49  1  0  0  0  0
 28 29  1  0  0  0  0
 28 50  1  0  0  0  0
 28 51  1  0  0  0  0
 29 52  1  0  0  0  0
 29 53  1  0  0  0  0
M  CHG  1  54  -1
M  END
$$$$
ZINC02504720
  -OEChem-08230709463D

 58 60  0     0  0  0  0  0  0999 V2000
    3.7514    7.0173   -0.9738 C   0  0  0  0  0  0  0  0  0  0  0  0
    3.8374    5.8349   -0.0065 C   0  0  0  0  0  0  0  0  0  0  0  0
    4.9475    4.9172   -0.4419 C   0  0  0  0  0  0  0  0  0  0  0  0
    6.1481    5.4595   -0.8641 C   0  0  0  0  0  0  0  0  0  0  0  0
    7.1876    4.6400   -1.2694 C   0  0  0  0  0  0  0  0  0  0  0  0
    7.0373    3.2704   -1.2563 C   0  0  0  0  0  0  0  0  0  0  0  0
    5.8311    2.7082   -0.8330 C   0  0  0  0  0  0  0  0  0  0  0  0
    4.7785    3.5431   -0.4225 C   0  0  0  0  0  0  0  0  0  0  0  0
    3.6154    2.9881   -0.0149 O   0  0  0  0  0  0  0  0  0  0  0  0
    2.4799    3.7210    0.0042 C   0  0  0  0  0  0  0  0  0  0  0  0
    2.5216    5.1050    0.0033 C   0  0  0  0  0  0  0  0  0  0  0  0
    1.3443    5.8314    0.0188 C   0  0  0  0  0  0  0  0  0  0  0  0
    0.1190    5.1873    0.0284 C   0  0  0  0  0  0  0  0  0  0  0  0
    0.0585    3.8107    0.0220 C   0  0  0  0  0  0  0  0  0  0  0  0
    1.2383    3.0638    0.0067 C   0  0  0  0  0  0  0  0  0  0  0  0
    1.1811    1.5909   -0.0007 C   0  0  0  0  0  0  0  0  0  0  0  0
    2.2090    0.9430   -0.0140 O   0  0  0  0  0  0  0  0  0  0  0  0
   -1.1534    5.9946    0.0454 C   0  0  0  0  0  0  0  0  0  0  0  0
   -2.3568    5.0497    0.0528 C   0  0  0  0  0  0  0  0  0  0  0  0
   -1.1850    6.8704    1.2995 C   0  0  0  0  0  0  0  0  0  0  0  0
   -1.2103    6.8832   -1.1988 C   0  0  0  0  0  0  0  0  0  0  0  0
    5.6630    1.2438   -0.8168 C   0  0  0  0  0  0  0  0  0  0  0  0
    4.6126    0.7569   -0.4480 O   0  0  0  0  0  0  0  0  0  0  0  0
    8.4883    5.2481   -1.7271 C   0  0  0  0  0  0  0  0  0  0  0  0
    9.0908    6.0780   -0.5917 C   0  0  0  0  0  0  0  0  0  0  0  0
    9.4624    4.1347   -2.1174 C   0  0  0  0  0  0  0  0  0  0  0  0
    8.2323    6.1490   -2.9370 C   0  0  0  0  0  0  0  0  0  0  0  0
    4.1364    6.3552    1.4009 C   0  0  0  0  0  0  0  0  0  0  0  0
    2.9606    7.6943   -0.6507 H   0  0  0  0  0  0  0  0  0  0  0  0
    4.7031    7.5486   -0.9836 H   0  0  0  0  0  0  0  0  0  0  0  0
    3.5293    6.6512   -1.9762 H   0  0  0  0  0  0  0  0  0  0  0  0
    6.2755    6.5319   -0.8779 H   0  0  0  0  0  0  0  0  0  0  0  0
    7.8502    2.6333   -1.5723 H   0  0  0  0  0  0  0  0  0  0  0  0
    1.3815    6.9108    0.0232 H   0  0  0  0  0  0  0  0  0  0  0  0
   -0.8988    3.3107    0.0291 H   0  0  0  0  0  0  0  0  0  0  0  0
   -2.3163    4.4166    0.9392 H   0  0  0  0  0  0  0  0  0  0  0  0
   -3.2772    5.6336    0.0651 H   0  0  0  0  0  0  0  0  0  0  0  0
   -2.3343    4.4258   -0.8407 H   0  0  0  0  0  0  0  0  0  0  0  0
   -0.3277    7.5435    1.2943 H   0  0  0  0  0  0  0  0  0  0  0  0
   -2.1054    7.4543    1.3118 H   0  0  0  0  0  0  0  0  0  0  0  0
   -1.1445    6.2373    2.1859 H   0  0  0  0  0  0  0  0  0  0  0  0
   -1.1878    6.2592   -2.0922 H   0  0  0  0  0  0  0  0  0  0  0  0
   -2.1307    7.4671   -1.1865 H   0  0  0  0  0  0  0  0  0  0  0  0
   -0.3530    7.5563   -1.2040 H   0  0  0  0  0  0  0  0  0  0  0  0
    9.2732    5.4362    0.2702 H   0  0  0  0  0  0  0  0  0  0  0  0
   10.0315    6.5179   -0.9227 H   0  0  0  0  0  0  0  0  0  0  0  0
    8.3968    6.8712   -0.3136 H   0  0  0  0  0  0  0  0  0  0  0  0
    9.0332    3.5435   -2.9263 H   0  0  0  0  0  0  0  0  0  0  0  0
   10.4032    4.5746   -2.4485 H   0  0  0  0  0  0  0  0  0  0  0  0
    9.6448    3.4929   -1.2555 H   0  0  0  0  0  0  0  0  0  0  0  0
    7.5383    6.9422   -2.6589 H   0  0  0  0  0  0  0  0  0  0  0  0
    9.1730    6.5889   -3.2680 H   0  0  0  0  0  0  0  0  0  0  0  0
    7.8031    5.5578   -3.7459 H   0  0  0  0  0  0  0  0  0  0  0  0
    4.1892    5.5162    2.0948 H   0  0  0  0  0  0  0  0  0  0  0  0
    5.0891    6.8847    1.3978 H   0  0  0  0  0  0  0  0  0  0  0  0
    3.3437    7.0353    1.7129 H   0  0  0  0  0  0  0  0  0  0  0  0
   -0.0110    0.9628    0.0073 O   0  5  0  0  0  0  0  0  0  0  0  0
    6.6742    0.4452   -1.2111 O   0  5  0  0  0  0  0  0  0  0  0  0
  1  2  1  0  0  0  0
  1 29  1  0  0  0  0
  1 30  1  0  0  0  0
  1 31  1  0  0  0  0
  2 11  1  0  0  0  0
  2  3  1  0  0  0  0
  2 28  1  0  0  0  0
  3  8  2  0  0  0  0
  3  4  1  0  0  0  0
  4  5  2  0  0  0  0
  4 32  1  0  0  0  0
  5  6  1  0  0  0  0
  5 24  1  0  0  0  0
  6  7  2  0  0  0  0
  6 33  1  0  0  0  0
  7  8  1  0  0  0  0
  7 22  1  0  0  0  0
  8  9  1  0  0  0  0
  9 10  1  0  0  0  0
 10 15  2  0  0  0  0
 10 11  1  0  0  0  0
 11 12  2  0  0  0  0
 12 13  1  0  0  0  0
 12 34  1  0  0  0  0
 13 14  2  0  0  0  0
 13 18  1  0  0  0  0
 14 15  1  0  0  0  0
 14 35  1  0  0  0  0
 15 16  1  0  0  0  0
 16 17  2  0  0  0  0
 16 57  1  0  0  0  0
 18 19  1  0  0  0  0
 18 20  1  0  0  0  0
 18 21  1  0  0  0  0
 19 36  1  0  0  0  0
 19 37  1  0  0  0  0
 19 38  1  0  0  0  0
 20 39  1  0  0  0  0
 20 40  1  0  0  0  0
 20 41  1  0  0  0  0
 21 42  1  0  0  0  0
 21 43  1  0  0  0  0
 21 44  1  0  0  0  0
 22 23  2  0  0  0  0
 22 58  1  0  0  0  0
 24 25  1  0  0  0  0
 24 26  1  0  0  0  0
 24 27  1  0  0  0  0
 25 45  1  0  0  0  0
 25 46  1  0  0  0  0
 25 47  1  0  0  0  0
 26 48  1  0  0  0  0
 26 49  1  0  0  0  0
 26 50  1  0  0  0  0
 27 51  1  0  0  0  0
 27 52  1  0  0  0  0
 27 53  1  0  0  0  0
 28 54  1  0  0  0  0
 28 55  1  0  0  0  0
 28 56  1  0  0  0  0
M  CHG  2  57  -1  58  -1
M  END
$$$$
ZINC02505677
  -OEChem-08230709463D

 53 55  0     1  0  0  0  0  0999 V2000
   -0.4931   -5.6474   -3.7193 C   0  0  0  0  0  0  0  0  0  0  0  0
    0.8830   -5.2165   -3.2078 C   0  0  0  0  0  0  0  0  0  0  0  0
    1.8824   -5.2222   -4.3662 C   0  0  0  0  0  0  0  0  0  0  0  0
    1.3521   -6.1899   -2.1246 C   0  0  0  0  0  0  0  0  0  0  0  0
    0.7951   -3.8784   -2.6509 O   0  0  0  0  0  0  0  0  0  0  0  0
   -0.0474   -3.7013   -1.6158 C   0  0  0  0  0  0  0  0  0  0  0  0
   -0.6917   -4.6391   -1.1894 O   0  0  0  0  0  0  0  0  0  0  0  0
   -0.1762   -2.4836   -1.0525 N   0  0  0  0  0  0  0  0  0  0  0  0
   -1.0930   -2.2908    0.0738 C   0  0  1  0  0  0  0  0  0  0  0  0
   -1.9669   -2.9293   -0.0557 H   0  0  0  0  0  0  0  0  0  0  0  0
   -0.3930   -2.6518    1.3587 C   0  0  0  0  0  0  0  0  0  0  0  0
    0.9598   -2.4046    1.5002 C   0  0  0  0  0  0  0  0  0  0  0  0
    1.6062   -2.7336    2.6770 C   0  0  0  0  0  0  0  0  0  0  0  0
    0.8987   -3.3119    3.7184 C   0  0  0  0  0  0  0  0  0  0  0  0
   -0.4641   -3.5609    3.5758 C   0  0  0  0  0  0  0  0  0  0  0  0
   -1.1063   -3.2242    2.3953 C   0  0  0  0  0  0  0  0  0  0  0  0
   -0.9266   -4.1287    4.7277 O   0  0  0  0  0  0  0  0  0  0  0  0
    0.2441   -4.5988    5.4218 C   0  0  0  0  0  0  0  0  0  0  0  0
    1.2900   -3.7236    4.9596 O   0  0  0  0  0  0  0  0  0  0  0  0
   -1.5343   -0.8268    0.1274 C   0  0  1  0  0  0  0  0  0  0  0  0
   -2.1353   -0.6610    1.0215 H   0  0  0  0  0  0  0  0  0  0  0  0
   -0.3002    0.0767    0.1676 C   0  0  0  0  0  0  0  0  0  0  0  0
   -0.7323    1.5096    0.3439 C   0  0  0  0  0  0  0  0  0  0  0  0
   -0.9810    2.2979   -0.7641 C   0  0  0  0  0  0  0  0  0  0  0  0
   -1.3820    3.6109   -0.6022 C   0  0  0  0  0  0  0  0  0  0  0  0
   -1.5241    4.1386    0.6675 C   0  0  0  0  0  0  0  0  0  0  0  0
   -1.2703    3.3519    1.7754 C   0  0  0  0  0  0  0  0  0  0  0  0
   -0.8744    2.0374    1.6136 C   0  0  0  0  0  0  0  0  0  0  0  0
   -2.3535   -0.5041   -1.0956 C   0  0  0  0  0  0  0  0  0  0  0  0
   -2.0694   -0.9984   -2.1609 O   0  0  0  0  0  0  0  0  0  0  0  0
   -0.8273   -4.9539   -4.4910 H   0  0  0  0  0  0  0  0  0  0  0  0
   -0.4272   -6.6519   -4.1373 H   0  0  0  0  0  0  0  0  0  0  0  0
   -1.2052   -5.6433   -2.8940 H   0  0  0  0  0  0  0  0  0  0  0  0
    2.8628   -4.9153   -4.0017 H   0  0  0  0  0  0  0  0  0  0  0  0
    1.9484   -6.2267   -4.7842 H   0  0  0  0  0  0  0  0  0  0  0  0
    1.5482   -4.5288   -5.1379 H   0  0  0  0  0  0  0  0  0  0  0  0
    0.6401   -6.1858   -1.2993 H   0  0  0  0  0  0  0  0  0  0  0  0
    1.4181   -7.1944   -2.5426 H   0  0  0  0  0  0  0  0  0  0  0  0
    2.3325   -5.8830   -1.7601 H   0  0  0  0  0  0  0  0  0  0  0  0
    0.3381   -1.7349   -1.3929 H   0  0  0  0  0  0  0  0  0  0  0  0
    1.5129   -1.9539    0.6894 H   0  0  0  0  0  0  0  0  0  0  0  0
    2.6631   -2.5394    2.7848 H   0  0  0  0  0  0  0  0  0  0  0  0
   -2.1639   -3.4121    2.2836 H   0  0  0  0  0  0  0  0  0  0  0  0
    0.4613   -5.6318    5.1503 H   0  0  0  0  0  0  0  0  0  0  0  0
    0.1140   -4.5042    6.4998 H   0  0  0  0  0  0  0  0  0  0  0  0
    0.3373   -0.2159    1.0019 H   0  0  0  0  0  0  0  0  0  0  0  0
    0.2540   -0.0235   -0.7656 H   0  0  0  0  0  0  0  0  0  0  0  0
   -0.8656    1.8868   -1.7561 H   0  0  0  0  0  0  0  0  0  0  0  0
   -1.5799    4.2256   -1.4678 H   0  0  0  0  0  0  0  0  0  0  0  0
   -1.8331    5.1657    0.7938 H   0  0  0  0  0  0  0  0  0  0  0  0
   -1.3811    3.7643    2.7674 H   0  0  0  0  0  0  0  0  0  0  0  0
   -0.6758    1.4228    2.4792 H   0  0  0  0  0  0  0  0  0  0  0  0
   -3.3989    0.3326   -1.0015 O   0  5  0  0  0  0  0  0  0  0  0  0
  1  2  1  0  0  0  0
  1 31  1  0  0  0  0
  1 32  1  0  0  0  0
  1 33  1  0  0  0  0
  2  3  1  0  0  0  0
  2  4  1  0  0  0  0
  2  5  1  0  0  0  0
  3 34  1  0  0  0  0
  3 35  1  0  0  0  0
  3 36  1  0  0  0  0
  4 37  1  0  0  0  0
  4 38  1  0  0  0  0
  4 39  1  0  0  0  0
  5  6  1  0  0  0  0
  6  7  2  0  0  0  0
  6  8  1  0  0  0  0
  8  9  1  0  0  0  0
  8 40  1  0  0  0  0
  9 10  1  0  0  0  0
  9 11  1  0  0  0  0
  9 20  1  0  0  0  0
 11 16  2  0  0  0  0
 11 12  1  0  0  0  0
 12 13  2  0  0  0  0
 12 41  1  0  0  0  0
 13 14  1  0  0  0  0
 13 42  1  0  0  0  0
 14 19  1  0  0  0  0
 14 15  2  0  0  0  0
 15 16  1  0  0  0  0
 15 17  1  0  0  0  0
 16 43  1  0  0  0  0
 17 18  1  0  0  0  0
 18 19  1  0  0  0  0
 18 44  1  0  0  0  0
 18 45  1  0  0  0  0
 20 21  1  0  0  0  0
 20 22  1  0  0  0  0
 20 29  1  0  0  0  0
 22 23  1  0  0  0  0
 22 46  1  0  0  0  0
 22 47  1  0  0  0  0
 23 28  2  0  0  0  0
 23 24  1  0  0  0  0
 24 25  2  0  0  0  0
 24 48  1  0  0  0  0
 25 26  1  0  0  0  0
 25 49  1  0  0  0  0
 26 27  2  0  0  0  0
 26 50  1  0  0  0  0
 27 28  1  0  0  0  0
 27 51  1  0  0  0  0
 28 52  1  0  0  0  0
 29 30  2  0  0  0  0
 29 53  1  0  0  0  0
M  CHG  1  53  -1
M  END
$$$$
ZINC02507609
  -OEChem-08230709463D

 51 51  0     1  0  0  0  0  0999 V2000
   -3.5350    5.0514    8.3841 C   0  0  0  0  0  0  0  0  0  0  0  0
   -3.7856    4.6237    6.9609 C   0  0  0  0  0  0  0  0  0  0  0  0
   -3.3516    5.4159    5.9145 C   0  0  0  0  0  0  0  0  0  0  0  0
   -3.5815    5.0236    4.6091 C   0  0  0  0  0  0  0  0  0  0  0  0
   -4.2446    3.8387    4.3501 C   0  0  0  0  0  0  0  0  0  0  0  0
   -4.6829    3.0489    5.3965 C   0  0  0  0  0  0  0  0  0  0  0  0
   -4.4492    3.4390    6.7019 C   0  0  0  0  0  0  0  0  0  0  0  0
   -4.4952    3.4110    2.9269 C   0  0  0  0  0  0  0  0  0  0  0  0
   -3.1022    2.4063    2.3433 S   0  0  0  0  0  0  0  0  0  0  0  0
   -3.5535    1.9781    0.6393 C   0  0  0  0  0  0  0  0  0  0  0  0
   -2.4493    1.1192    0.0197 C   0  0  1  0  0  0  0  0  0  0  0  0
   -2.3279    0.2068    0.6037 H   0  0  0  0  0  0  0  0  0  0  0  0
   -2.8299    0.7580   -1.4175 C   0  0  2  0  0  0  0  0  0  0  0  0
   -3.7664    0.2002   -1.4160 H   0  0  0  0  0  0  0  0  0  0  0  0
   -1.7257   -0.1009   -2.0370 C   0  0  0  0  0  0  0  0  0  0  0  0
   -2.1545   -0.5586   -3.4073 C   0  0  0  0  0  0  0  0  0  0  0  0
   -3.2327   -0.2315   -3.8435 O   0  0  0  0  0  0  0  0  0  0  0  0
   -2.9891    1.9541   -2.1830 O   0  0  0  0  0  0  0  0  0  0  0  0
   -1.1906    1.8689    0.0179 N   0  0  0  0  0  0  0  0  0  0  0  0
   -0.0144    1.2109    0.0087 C   0  0  0  0  0  0  0  0  0  0  0  0
    0.0021   -0.0041    0.0020 O   0  0  0  0  0  0  0  0  0  0  0  0
    1.1423    1.8999    0.0014 O   0  0  0  0  0  0  0  0  0  0  0  0
    2.3706    1.1257   -0.0145 C   0  0  0  0  0  0  0  0  0  0  0  0
    2.4055    0.2504   -1.2689 C   0  0  0  0  0  0  0  0  0  0  0  0
    3.5712    2.0742   -0.0209 C   0  0  0  0  0  0  0  0  0  0  0  0
    2.4294    0.2370    1.2294 C   0  0  0  0  0  0  0  0  0  0  0  0
   -4.3717    5.6558    8.7345 H   0  0  0  0  0  0  0  0  0  0  0  0
   -3.4342    4.1692    9.0162 H   0  0  0  0  0  0  0  0  0  0  0  0
   -2.6179    5.6386    8.4308 H   0  0  0  0  0  0  0  0  0  0  0  0
   -2.8332    6.3415    6.1169 H   0  0  0  0  0  0  0  0  0  0  0  0
   -3.2427    5.6427    3.7916 H   0  0  0  0  0  0  0  0  0  0  0  0
   -5.2049    2.1253    5.1941 H   0  0  0  0  0  0  0  0  0  0  0  0
   -4.7880    2.8200    7.5194 H   0  0  0  0  0  0  0  0  0  0  0  0
   -4.5968    4.2933    2.2949 H   0  0  0  0  0  0  0  0  0  0  0  0
   -5.4119    2.8231    2.8803 H   0  0  0  0  0  0  0  0  0  0  0  0
   -3.6749    2.8905    0.0554 H   0  0  0  0  0  0  0  0  0  0  0  0
   -4.4900    1.4203    0.6407 H   0  0  0  0  0  0  0  0  0  0  0  0
   -0.8115    0.4870   -2.1199 H   0  0  0  0  0  0  0  0  0  0  0  0
   -1.5430   -0.9695   -1.4044 H   0  0  0  0  0  0  0  0  0  0  0  0
   -2.1931    2.5014   -2.2276 H   0  0  0  0  0  0  0  0  0  0  0  0
   -1.2038    2.8388    0.0232 H   0  0  0  0  0  0  0  0  0  0  0  0
    2.3637    0.8836   -2.1551 H   0  0  0  0  0  0  0  0  0  0  0  0
    3.3276   -0.3308   -1.2808 H   0  0  0  0  0  0  0  0  0  0  0  0
    1.5502   -0.4253   -1.2643 H   0  0  0  0  0  0  0  0  0  0  0  0
    3.5463    2.6978    0.8727 H   0  0  0  0  0  0  0  0  0  0  0  0
    4.4932    1.4930   -0.0328 H   0  0  0  0  0  0  0  0  0  0  0  0
    3.5293    2.7074   -0.9071 H   0  0  0  0  0  0  0  0  0  0  0  0
    1.5741   -0.4387    1.2340 H   0  0  0  0  0  0  0  0  0  0  0  0
    3.3515   -0.3442    1.2175 H   0  0  0  0  0  0  0  0  0  0  0  0
    2.4045    0.8606    2.1231 H   0  0  0  0  0  0  0  0  0  0  0  0
   -1.3387   -1.3298   -4.1431 O   0  5  0  0  0  0  0  0  0  0  0  0
  1  2  1  0  0  0  0
  1 27  1  0  0  0  0
  1 28  1  0  0  0  0
  1 29  1  0  0  0  0
  2  7  2  0  0  0  0
  2  3  1  0  0  0  0
  3  4  2  0  0  0  0
  3 30  1  0  0  0  0
  4  5  1  0  0  0  0
  4 31  1  0  0  0  0
  5  6  2  0  0  0  0
  5  8  1  0  0  0  0
  6  7  1  0  0  0  0
  6 32  1  0  0  0  0
  7 33  1  0  0  0  0
  8  9  1  0  0  0  0
  8 34  1  0  0  0  0
  8 35  1  0  0  0  0
  9 10  1  0  0  0  0
 10 11  1  0  0  0  0
 10 36  1  0  0  0  0
 10 37  1  0  0  0  0
 11 12  1  0  0  0  0
 11 13  1  0  0  0  0
 11 19  1  0  0  0  0
 13 14  1  0  0  0  0
 13 15  1  0  0  0  0
 13 18  1  0  0  0  0
 15 16  1  0  0  0  0
 15 38  1  0  0  0  0
 15 39  1  0  0  0  0
 16 17  2  0  0  0  0
 16 51  1  0  0  0  0
 18 40  1  0  0  0  0
 19 20  1  0  0  0  0
 19 41  1  0  0  0  0
 20 21  2  0  0  0  0
 20 22  1  0  0  0  0
 22 23  1  0  0  0  0
 23 24  1  0  0  0  0
 23 25  1  0  0  0  0
 23 26  1  0  0  0  0
 24 42  1  0  0  0  0
 24 43  1  0  0  0  0
 24 44  1  0  0  0  0
 25 45  1  0  0  0  0
 25 46  1  0  0  0  0
 25 47  1  0  0  0  0
 26 48  1  0  0  0  0
 26 49  1  0  0  0  0
 26 50  1  0  0  0  0
M  CHG  1  51  -1
M  END
$$$$
ZINC02526807
  -OEChem-08230709463D

 55 57  0     1  0  0  0  0  0999 V2000
   -4.6561   10.7945    1.3710 C   0  0  0  0  0  0  0  0  0  0  0  0
   -5.9519   10.0553    1.7105 C   0  0  0  0  0  0  0  0  0  0  0  0
   -6.8914   10.0925    0.5035 C   0  0  0  0  0  0  0  0  0  0  0  0
   -6.6279   10.7328    2.9042 C   0  0  0  0  0  0  0  0  0  0  0  0
   -5.6532    8.6972    2.0399 O   0  0  0  0  0  0  0  0  0  0  0  0
   -4.7779    8.5498    3.1598 C   0  0  0  0  0  0  0  0  0  0  0  0
   -4.5289    7.0628    3.4202 C   0  0  0  0  0  0  0  0  0  0  0  0
   -3.8071    6.4824    2.2851 N   0  0  0  0  0  0  0  0  0  0  0  0
   -4.5503    5.9097    1.1600 C   0  0  0  0  0  0  0  0  0  0  0  0
   -4.8074    4.4477    1.4199 C   0  0  0  0  0  0  0  0  0  0  0  0
   -4.4105    3.9366    2.4402 O   0  0  0  0  0  0  0  0  0  0  0  0
   -2.4594    6.4754    2.2759 C   0  0  0  0  0  0  0  0  0  0  0  0
   -1.8430    6.9504    3.2091 O   0  0  0  0  0  0  0  0  0  0  0  0
   -1.7961    5.9420    1.2327 O   0  0  0  0  0  0  0  0  0  0  0  0
   -0.3455    5.9689    1.2905 C   0  0  0  0  0  0  0  0  0  0  0  0
    0.2273    5.3234    0.0272 C   0  0  2  0  0  0  0  0  0  0  0  0
   -0.0641    3.8428    0.0224 C   0  0  0  0  0  0  0  0  0  0  0  0
   -1.2453    3.1318    0.0294 C   0  0  0  0  0  0  0  0  0  0  0  0
   -1.2212    1.7483    0.0173 C   0  0  0  0  0  0  0  0  0  0  0  0
   -0.0126    1.0758    0.0080 C   0  0  0  0  0  0  0  0  0  0  0  0
    1.1742    1.7791    0.0004 C   0  0  0  0  0  0  0  0  0  0  0  0
    1.1575    3.1749    0.0076 C   0  0  0  0  0  0  0  0  0  0  0  0
    2.2622    4.1657    0.0022 C   0  0  0  0  0  0  0  0  0  0  0  0
    1.7308    5.4525    0.0137 C   0  0  0  0  0  0  0  0  0  0  0  0
    2.5657    6.5497    0.0110 C   0  0  0  0  0  0  0  0  0  0  0  0
    3.9383    6.3757   -0.0032 C   0  0  0  0  0  0  0  0  0  0  0  0
    4.4757    5.1012   -0.0147 C   0  0  0  0  0  0  0  0  0  0  0  0
    3.6479    3.9977   -0.0116 C   0  0  0  0  0  0  0  0  0  0  0  0
   -4.1744   10.3118    0.5206 H   0  0  0  0  0  0  0  0  0  0  0  0
   -4.8839   11.8304    1.1198 H   0  0  0  0  0  0  0  0  0  0  0  0
   -3.9867   10.7680    2.2309 H   0  0  0  0  0  0  0  0  0  0  0  0
   -7.8146    9.5658    0.7454 H   0  0  0  0  0  0  0  0  0  0  0  0
   -7.1193   11.1284    0.2523 H   0  0  0  0  0  0  0  0  0  0  0  0
   -6.4098    9.6098   -0.3468 H   0  0  0  0  0  0  0  0  0  0  0  0
   -5.9585   10.7063    3.7640 H   0  0  0  0  0  0  0  0  0  0  0  0
   -6.8557   11.7687    2.6529 H   0  0  0  0  0  0  0  0  0  0  0  0
   -7.5511   10.2061    3.1460 H   0  0  0  0  0  0  0  0  0  0  0  0
   -5.2351    9.0012    4.0403 H   0  0  0  0  0  0  0  0  0  0  0  0
   -3.8304    9.0452    2.9480 H   0  0  0  0  0  0  0  0  0  0  0  0
   -5.4832    6.5508    3.5441 H   0  0  0  0  0  0  0  0  0  0  0  0
   -3.9342    6.9472    4.3263 H   0  0  0  0  0  0  0  0  0  0  0  0
   -5.5008    6.4316    1.0490 H   0  0  0  0  0  0  0  0  0  0  0  0
   -3.9669    6.0191    0.2458 H   0  0  0  0  0  0  0  0  0  0  0  0
   -0.0065    5.4162    2.1667 H   0  0  0  0  0  0  0  0  0  0  0  0
   -0.0037    7.0018    1.3578 H   0  0  0  0  0  0  0  0  0  0  0  0
   -0.1976    5.7924   -0.8603 H   0  0  0  0  0  0  0  0  0  0  0  0
   -2.1901    3.6550    0.0409 H   0  0  0  0  0  0  0  0  0  0  0  0
   -2.1474    1.1928    0.0191 H   0  0  0  0  0  0  0  0  0  0  0  0
    0.0021   -0.0041    0.0020 H   0  0  0  0  0  0  0  0  0  0  0  0
    2.1156    1.2500   -0.0107 H   0  0  0  0  0  0  0  0  0  0  0  0
    2.1480    7.5457    0.0203 H   0  0  0  0  0  0  0  0  0  0  0  0
    4.5910    7.2362   -0.0057 H   0  0  0  0  0  0  0  0  0  0  0  0
    5.5476    4.9695   -0.0254 H   0  0  0  0  0  0  0  0  0  0  0  0
    4.0717    3.0044   -0.0203 H   0  0  0  0  0  0  0  0  0  0  0  0
   -5.4772    3.7133    0.5178 O   0  5  0  0  0  0  0  0  0  0  0  0
  1  2  1  0  0  0  0
  1 29  1  0  0  0  0
  1 30  1  0  0  0  0
  1 31  1  0  0  0  0
  2  3  1  0  0  0  0
  2  4  1  0  0  0  0
  2  5  1  0  0  0  0
  3 32  1  0  0  0  0
  3 33  1  0  0  0  0
  3 34  1  0  0  0  0
  4 35  1  0  0  0  0
  4 36  1  0  0  0  0
  4 37  1  0  0  0  0
  5  6  1  0  0  0  0
  6  7  1  0  0  0  0
  6 38  1  0  0  0  0
  6 39  1  0  0  0  0
  7  8  1  0  0  0  0
  7 40  1  0  0  0  0
  7 41  1  0  0  0  0
  8  9  1  0  0  0  0
  8 12  1  0  0  0  0
  9 10  1  0  0  0  0
  9 42  1  0  0  0  0
  9 43  1  0  0  0  0
 10 11  2  0  0  0  0
 10 55  1  0  0  0  0
 12 13  2  0  0  0  0
 12 14  1  0  0  0  0
 14 15  1  0  0  0  0
 15 16  1  0  0  0  0
 15 44  1  0  0  0  0
 15 45  1  0  0  0  0
 16 24  1  0  0  0  0
 16 17  1  0  0  0  0
 16 46  1  0  0  0  0
 17 22  2  0  0  0  0
 17 18  1  0  0  0  0
 18 19  2  0  0  0  0
 18 47  1  0  0  0  0
 19 20  1  0  0  0  0
 19 48  1  0  0  0  0
 20 21  2  0  0  0  0
 20 49  1  0  0  0  0
 21 22  1  0  0  0  0
 21 50  1  0  0  0  0
 22 23  1  0  0  0  0
 23 28  2  0  0  0  0
 23 24  1  0  0  0  0
 24 25  2  0  0  0  0
 25 26  1  0  0  0  0
 25 51  1  0  0  0  0
 26 27  2  0  0  0  0
 26 52  1  0  0  0  0
 27 28  1  0  0  0  0
 27 53  1  0  0  0  0
 28 54  1  0  0  0  0
M  CHG  1  55  -1
M  END
$$$$
ZINC02527325
  -OEChem-08230709463D

 50 52  0     1  0  0  0  0  0999 V2000
   -0.8765   -6.7607   -1.6093 C   0  0  0  0  0  0  0  0  0  0  0  0
   -1.5289   -6.8577   -0.2287 C   0  0  0  0  0  0  0  0  0  0  0  0
   -0.7110   -7.8001    0.6567 C   0  0  0  0  0  0  0  0  0  0  0  0
   -2.9517   -7.4011   -0.3740 C   0  0  0  0  0  0  0  0  0  0  0  0
   -1.5738   -5.5398    0.3791 O   0  0  0  0  0  0  0  0  0  0  0  0
   -2.2597   -4.5863   -0.2789 C   0  0  0  0  0  0  0  0  0  0  0  0
   -2.8059   -4.8483   -1.3323 O   0  0  0  0  0  0  0  0  0  0  0  0
   -2.3406   -3.3413    0.2308 N   0  0  0  0  0  0  0  0  0  0  0  0
   -3.0870   -2.3037   -0.4852 C   0  0  0  0  0  0  0  0  0  0  0  0
   -3.6134   -1.1753    0.4126 C   0  0  0  0  0  0  0  0  0  0  0  0
   -2.2087   -1.1912   -1.0748 C   0  0  0  0  0  0  0  0  0  0  0  0
   -2.5160    0.9523    0.0192 C   0  0  1  0  0  0  0  0  0  0  0  0
   -3.2591    1.1149   -0.7615 H   0  0  0  0  0  0  0  0  0  0  0  0
   -2.9934    1.5767    1.3050 C   0  0  0  0  0  0  0  0  0  0  0  0
   -2.4456    1.1580    2.5163 C   0  0  0  0  0  0  0  0  0  0  0  0
   -2.8503    1.7053    3.6947 C   0  0  0  0  0  0  0  0  0  0  0  0
   -3.8391    2.7040    3.6944 C   0  0  0  0  0  0  0  0  0  0  0  0
   -4.2822    3.2929    4.8910 C   0  0  0  0  0  0  0  0  0  0  0  0
   -5.2413    4.2577    4.8519 C   0  0  0  0  0  0  0  0  0  0  0  0
   -5.7930    4.6725    3.6411 C   0  0  0  0  0  0  0  0  0  0  0  0
   -5.3889    4.1245    2.4627 C   0  0  0  0  0  0  0  0  0  0  0  0
   -4.4000    3.1258    2.4632 C   0  0  0  0  0  0  0  0  0  0  0  0
   -3.9569    2.5371    1.2665 C   0  0  0  0  0  0  0  0  0  0  0  0
   -1.2102    1.5830   -0.3910 C   0  0  0  0  0  0  0  0  0  0  0  0
   -0.1644    1.0699   -0.0702 O   0  0  0  0  0  0  0  0  0  0  0  0
    0.1372   -6.3736   -1.5057 H   0  0  0  0  0  0  0  0  0  0  0  0
   -0.8428   -7.7500   -2.0655 H   0  0  0  0  0  0  0  0  0  0  0  0
   -1.4592   -6.0893   -2.2401 H   0  0  0  0  0  0  0  0  0  0  0  0
   -1.1757   -7.8692    1.6402 H   0  0  0  0  0  0  0  0  0  0  0  0
   -0.6773   -8.7894    0.2004 H   0  0  0  0  0  0  0  0  0  0  0  0
    0.3027   -7.4130    0.7602 H   0  0  0  0  0  0  0  0  0  0  0  0
   -3.5344   -6.7298   -1.0048 H   0  0  0  0  0  0  0  0  0  0  0  0
   -2.9180   -8.3904   -0.8303 H   0  0  0  0  0  0  0  0  0  0  0  0
   -3.4164   -7.4703    0.6095 H   0  0  0  0  0  0  0  0  0  0  0  0
   -1.9046   -3.1322    1.0716 H   0  0  0  0  0  0  0  0  0  0  0  0
   -3.8272   -2.7059   -1.1769 H   0  0  0  0  0  0  0  0  0  0  0  0
   -3.7891   -1.4860    1.4425 H   0  0  0  0  0  0  0  0  0  0  0  0
   -4.4593   -0.6373   -0.0154 H   0  0  0  0  0  0  0  0  0  0  0  0
   -2.6795   -0.6580   -1.9006 H   0  0  0  0  0  0  0  0  0  0  0  0
   -1.1939   -1.5154   -1.3054 H   0  0  0  0  0  0  0  0  0  0  0  0
   -1.6853    0.3910    2.5193 H   0  0  0  0  0  0  0  0  0  0  0  0
   -2.4137    1.3741    4.6254 H   0  0  0  0  0  0  0  0  0  0  0  0
   -3.8635    2.9818    5.8367 H   0  0  0  0  0  0  0  0  0  0  0  0
   -5.5798    4.7088    5.7729 H   0  0  0  0  0  0  0  0  0  0  0  0
   -6.5528    5.4400    3.6379 H   0  0  0  0  0  0  0  0  0  0  0  0
   -5.8258    4.4553    1.5321 H   0  0  0  0  0  0  0  0  0  0  0  0
   -4.3756    2.8484    0.3208 H   0  0  0  0  0  0  0  0  0  0  0  0
   -2.4039   -0.5599    0.1394 N   0  3  0  0  0  0  0  0  0  0  0  0
   -1.6776   -0.7916    0.8271 H   0  0  0  0  0  0  0  0  0  0  0  0
   -1.2090    2.7147   -1.1127 O   0  5  0  0  0  0  0  0  0  0  0  0
  1  2  1  0  0  0  0
  1 26  1  0  0  0  0
  1 27  1  0  0  0  0
  1 28  1  0  0  0  0
  2  3  1  0  0  0  0
  2  4  1  0  0  0  0
  2  5  1  0  0  0  0
  3 29  1  0  0  0  0
  3 30  1  0  0  0  0
  3 31  1  0  0  0  0
  4 32  1  0  0  0  0
  4 33  1  0  0  0  0
  4 34  1  0  0  0  0
  5  6  1  0  0  0  0
  6  7  2  0  0  0  0
  6  8  1  0  0  0  0
  8  9  1  0  0  0  0
  8 35  1  0  0  0  0
  9 11  1  0  0  0  0
  9 10  1  0  0  0  0
  9 36  1  0  0  0  0
 10 37  1  0  0  0  0
 10 38  1  0  0  0  0
 10 48  1  0  0  0  0
 11 39  1  0  0  0  0
 11 40  1  0  0  0  0
 11 48  1  0  0  0  0
 12 13  1  0  0  0  0
 12 14  1  0  0  0  0
 12 24  1  0  0  0  0
 12 48  1  0  0  0  0
 14 23  2  0  0  0  0
 14 15  1  0  0  0  0
 15 16  2  0  0  0  0
 15 41  1  0  0  0  0
 16 17  1  0  0  0  0
 16 42  1  0  0  0  0
 17 22  2  0  0  0  0
 17 18  1  0  0  0  0
 18 19  2  0  0  0  0
 18 43  1  0  0  0  0
 19 20  1  0  0  0  0
 19 44  1  0  0  0  0
 20 21  2  0  0  0  0
 20 45  1  0  0  0  0
 21 22  1  0  0  0  0
 21 46  1  0  0  0  0
 22 23  1  0  0  0  0
 23 47  1  0  0  0  0
 24 25  2  0  0  0  0
 24 50  1  0  0  0  0
 48 49  1  0  0  0  0
M  CHG  2  48   1  50  -1
M  END
$$$$
ZINC02528641
  -OEChem-08230709463D

 50 51  0     0  0  0  0  0  0999 V2000
    5.7569    8.7567    1.3681 C   0  0  0  0  0  0  0  0  0  0  0  0
    4.8875    7.4977    1.3748 C   0  0  0  0  0  0  0  0  0  0  0  0
    3.5567    7.8006    2.0662 C   0  0  0  0  0  0  0  0  0  0  0  0
    4.6244    7.0520   -0.0651 C   0  0  0  0  0  0  0  0  0  0  0  0
    3.8729    5.7458   -0.0572 C   0  0  0  0  0  0  0  0  0  0  0  0
    2.4893    5.7473   -0.0487 C   0  0  0  0  0  0  0  0  0  0  0  0
    1.7953    4.5551   -0.0410 C   0  0  0  0  0  0  0  0  0  0  0  0
    2.4920    3.3455   -0.0423 C   0  0  0  0  0  0  0  0  0  0  0  0
    3.8878    3.3512   -0.0455 C   0  0  0  0  0  0  0  0  0  0  0  0
    4.5696    4.5504   -0.0580 C   0  0  0  0  0  0  0  0  0  0  0  0
    1.7549    2.0644   -0.0341 C   0  0  0  0  0  0  0  0  0  0  0  0
    2.2569    0.7757   -0.0334 C   0  0  0  0  0  0  0  0  0  0  0  0
    1.3755   -0.2772   -0.0251 C   0  0  0  0  0  0  0  0  0  0  0  0
    0.0085    0.0035   -0.0176 C   0  0  0  0  0  0  0  0  0  0  0  0
   -0.0084    1.7885   -0.0227 S   0  0  0  0  0  0  0  0  0  0  0  0
   -1.0828   -0.8952   -0.0084 C   0  0  0  0  0  0  0  0  0  0  0  0
   -0.8826   -2.0958   -0.0057 O   0  0  0  0  0  0  0  0  0  0  0  0
    1.8353   -1.5949   -0.0236 N   0  0  0  0  0  0  0  0  0  0  0  0
    3.0617   -1.8802    0.4569 C   0  0  0  0  0  0  0  0  0  0  0  0
    3.7262   -1.0091    0.9823 O   0  0  0  0  0  0  0  0  0  0  0  0
    3.5507   -3.1306    0.3548 O   0  0  0  0  0  0  0  0  0  0  0  0
    4.8783   -3.3653    0.8940 C   0  0  0  0  0  0  0  0  0  0  0  0
    4.8859   -3.0418    2.3894 C   0  0  0  0  0  0  0  0  0  0  0  0
    5.2605   -4.8324    0.6877 C   0  0  0  0  0  0  0  0  0  0  0  0
    5.8873   -2.4692    0.1732 C   0  0  0  0  0  0  0  0  0  0  0  0
    5.2407    9.5519    0.8302 H   0  0  0  0  0  0  0  0  0  0  0  0
    5.9444    9.0742    2.3939 H   0  0  0  0  0  0  0  0  0  0  0  0
    6.7050    8.5410    0.8755 H   0  0  0  0  0  0  0  0  0  0  0  0
    5.4038    6.7025    1.9126 H   0  0  0  0  0  0  0  0  0  0  0  0
    2.9374    6.9036    2.0709 H   0  0  0  0  0  0  0  0  0  0  0  0
    3.7442    8.1181    3.0919 H   0  0  0  0  0  0  0  0  0  0  0  0
    3.0405    8.5957    1.5283 H   0  0  0  0  0  0  0  0  0  0  0  0
    5.5738    6.9219   -0.5844 H   0  0  0  0  0  0  0  0  0  0  0  0
    4.0310    7.8095   -0.5772 H   0  0  0  0  0  0  0  0  0  0  0  0
    1.9515    6.6839   -0.0478 H   0  0  0  0  0  0  0  0  0  0  0  0
    0.7153    4.5576   -0.0337 H   0  0  0  0  0  0  0  0  0  0  0  0
    4.4328    2.4188   -0.0416 H   0  0  0  0  0  0  0  0  0  0  0  0
    5.6496    4.5562   -0.0643 H   0  0  0  0  0  0  0  0  0  0  0  0
    3.3226    0.6007   -0.0390 H   0  0  0  0  0  0  0  0  0  0  0  0
    1.2721   -2.3055   -0.3684 H   0  0  0  0  0  0  0  0  0  0  0  0
    4.1670   -3.6802    2.9030 H   0  0  0  0  0  0  0  0  0  0  0  0
    5.8825   -3.2180    2.7942 H   0  0  0  0  0  0  0  0  0  0  0  0
    4.6136   -1.9966    2.5364 H   0  0  0  0  0  0  0  0  0  0  0  0
    5.2551   -5.0629   -0.3776 H   0  0  0  0  0  0  0  0  0  0  0  0
    6.2571   -5.0086    1.0925 H   0  0  0  0  0  0  0  0  0  0  0  0
    4.5416   -5.4708    1.2012 H   0  0  0  0  0  0  0  0  0  0  0  0
    5.6150   -1.4240    0.3202 H   0  0  0  0  0  0  0  0  0  0  0  0
    6.8839   -2.6454    0.5780 H   0  0  0  0  0  0  0  0  0  0  0  0
    5.8819   -2.6997   -0.8921 H   0  0  0  0  0  0  0  0  0  0  0  0
   -2.3471   -0.4217   -0.0027 O   0  5  0  0  0  0  0  0  0  0  0  0
  1  2  1  0  0  0  0
  1 26  1  0  0  0  0
  1 27  1  0  0  0  0
  1 28  1  0  0  0  0
  2  3  1  0  0  0  0
  2  4  1  0  0  0  0
  2 29  1  0  0  0  0
  3 30  1  0  0  0  0
  3 31  1  0  0  0  0
  3 32  1  0  0  0  0
  4  5  1  0  0  0  0
  4 33  1  0  0  0  0
  4 34  1  0  0  0  0
  5 10  2  0  0  0  0
  5  6  1  0  0  0  0
  6  7  2  0  0  0  0
  6 35  1  0  0  0  0
  7  8  1  0  0  0  0
  7 36  1  0  0  0  0
  8  9  2  0  0  0  0
  8 11  1  0  0  0  0
  9 10  1  0  0  0  0
  9 37  1  0  0  0  0
 10 38  1  0  0  0  0
 11 15  1  0  0  0  0
 11 12  2  0  0  0  0
 12 13  1  0  0  0  0
 12 39  1  0  0  0  0
 13 14  2  0  0  0  0
 13 18  1  0  0  0  0
 14 15  1  0  0  0  0
 14 16  1  0  0  0  0
 16 17  2  0  0  0  0
 16 50  1  0  0  0  0
 18 19  1  0  0  0  0
 18 40  1  0  0  0  0
 19 20  2  0  0  0  0
 19 21  1  0  0  0  0
 21 22  1  0  0  0  0
 22 23  1  0  0  0  0
 22 24  1  0  0  0  0
 22 25  1  0  0  0  0
 23 41  1  0  0  0  0
 23 42  1  0  0  0  0
 23 43  1  0  0  0  0
 24 44  1  0  0  0  0
 24 45  1  0  0  0  0
 24 46  1  0  0  0  0
 25 47  1  0  0  0  0
 25 48  1  0  0  0  0
 25 49  1  0  0  0  0
M  CHG  1  50  -1
M  END
$$$$
ZINC02540752
  -OEChem-08230709463D

 56 56  0     1  0  0  0  0  0999 V2000
    1.8774    5.4245   -1.7616 C   0  0  0  0  0  0  0  0  0  0  0  0
    0.4534    5.6861   -2.2561 C   0  0  0  0  0  0  0  0  0  0  0  0
    0.4313    5.6572   -3.7857 C   0  0  2  0  0  0  0  0  0  0  0  0
    0.8574    4.7177   -4.1376 H   0  0  0  0  0  0  0  0  0  0  0  0
    1.2550    6.8262   -4.3298 C   0  0  0  0  0  0  0  0  0  0  0  0
   -1.0125    5.7783   -4.2773 C   0  0  1  0  0  0  0  0  0  0  0  0
   -1.0205    5.8624   -5.3640 H   0  0  0  0  0  0  0  0  0  0  0  0
   -1.8005    4.5363   -3.8561 C   0  0  0  0  0  0  0  0  0  0  0  0
   -3.1302    4.6178   -4.3731 O   0  0  0  0  0  0  0  0  0  0  0  0
   -3.9200    3.4515   -4.1322 C   0  0  1  0  0  0  0  0  0  0  0  0
   -3.6375    3.0127   -3.1753 H   0  0  0  0  0  0  0  0  0  0  0  0
   -5.4005    3.8360   -4.0997 C   0  0  0  0  0  0  0  0  0  0  0  0
   -5.6634    4.7222   -2.9095 C   0  0  0  0  0  0  0  0  0  0  0  0
   -6.0916    4.1692   -1.7172 C   0  0  0  0  0  0  0  0  0  0  0  0
   -6.3374    4.9826   -0.6269 C   0  0  0  0  0  0  0  0  0  0  0  0
   -6.1449    6.3479   -0.7258 C   0  0  0  0  0  0  0  0  0  0  0  0
   -5.7117    6.9004   -1.9166 C   0  0  0  0  0  0  0  0  0  0  0  0
   -5.4710    6.0875   -3.0085 C   0  0  0  0  0  0  0  0  0  0  0  0
   -3.6852    2.4496   -5.2332 C   0  0  0  0  0  0  0  0  0  0  0  0
   -2.9911    2.7418   -6.1780 O   0  0  0  0  0  0  0  0  0  0  0  0
   -1.6297    6.9704   -3.6908 N   0  0  0  0  0  0  0  0  0  0  0  0
   -1.4655    8.1725   -4.2778 C   0  0  0  0  0  0  0  0  0  0  0  0
   -0.8054    8.2674   -5.2936 O   0  0  0  0  0  0  0  0  0  0  0  0
   -2.0327    9.2681   -3.7388 O   0  0  0  0  0  0  0  0  0  0  0  0
   -1.8137   10.5290   -4.4246 C   0  0  0  0  0  0  0  0  0  0  0  0
   -2.3666   10.4380   -5.8483 C   0  0  0  0  0  0  0  0  0  0  0  0
   -2.5297   11.6510   -3.6702 C   0  0  0  0  0  0  0  0  0  0  0  0
   -0.3138   10.8266   -4.4781 C   0  0  0  0  0  0  0  0  0  0  0  0
    2.2471    4.4946   -2.1938 H   0  0  0  0  0  0  0  0  0  0  0  0
    2.5241    6.2481   -2.0641 H   0  0  0  0  0  0  0  0  0  0  0  0
    1.8756    5.3444   -0.6745 H   0  0  0  0  0  0  0  0  0  0  0  0
    0.1211    6.6635   -1.9063 H   0  0  0  0  0  0  0  0  0  0  0  0
   -0.2131    4.9156   -1.8686 H   0  0  0  0  0  0  0  0  0  0  0  0
    0.8290    7.7657   -3.9779 H   0  0  0  0  0  0  0  0  0  0  0  0
    2.2836    6.7399   -3.9795 H   0  0  0  0  0  0  0  0  0  0  0  0
    1.2393    6.8056   -5.4195 H   0  0  0  0  0  0  0  0  0  0  0  0
   -1.8365    4.4806   -2.7681 H   0  0  0  0  0  0  0  0  0  0  0  0
   -1.3116    3.6451   -4.2495 H   0  0  0  0  0  0  0  0  0  0  0  0
   -6.0084    2.9345   -4.0228 H   0  0  0  0  0  0  0  0  0  0  0  0
   -5.6573    4.3704   -5.0144 H   0  0  0  0  0  0  0  0  0  0  0  0
   -6.2377    3.1020   -1.6385 H   0  0  0  0  0  0  0  0  0  0  0  0
   -6.6755    4.5510    0.3036 H   0  0  0  0  0  0  0  0  0  0  0  0
   -6.3327    6.9830    0.1274 H   0  0  0  0  0  0  0  0  0  0  0  0
   -5.5610    7.9670   -1.9938 H   0  0  0  0  0  0  0  0  0  0  0  0
   -5.1321    6.5191   -3.9387 H   0  0  0  0  0  0  0  0  0  0  0  0
   -2.1567    6.8947   -2.8799 H   0  0  0  0  0  0  0  0  0  0  0  0
   -3.4351   10.2259   -5.8102 H   0  0  0  0  0  0  0  0  0  0  0  0
   -2.2022   11.3845   -6.3632 H   0  0  0  0  0  0  0  0  0  0  0  0
   -1.8565    9.6386   -6.3858 H   0  0  0  0  0  0  0  0  0  0  0  0
   -2.1358   11.7159   -2.6559 H   0  0  0  0  0  0  0  0  0  0  0  0
   -2.3653   12.5976   -4.1850 H   0  0  0  0  0  0  0  0  0  0  0  0
   -3.5982   11.4390   -3.6321 H   0  0  0  0  0  0  0  0  0  0  0  0
    0.1963   10.0273   -5.0156 H   0  0  0  0  0  0  0  0  0  0  0  0
   -0.1494   11.7732   -4.9929 H   0  0  0  0  0  0  0  0  0  0  0  0
    0.0801   10.8915   -3.4638 H   0  0  0  0  0  0  0  0  0  0  0  0
   -4.2472    1.2326   -5.1641 O   0  5  0  0  0  0  0  0  0  0  0  0
  1  2  1  0  0  0  0
  1 29  1  0  0  0  0
  1 30  1  0  0  0  0
  1 31  1  0  0  0  0
  2  3  1  0  0  0  0
  2 32  1  0  0  0  0
  2 33  1  0  0  0  0
  3  4  1  0  0  0  0
  3  5  1  0  0  0  0
  3  6  1  0  0  0  0
  5 34  1  0  0  0  0
  5 35  1  0  0  0  0
  5 36  1  0  0  0  0
  6  7  1  0  0  0  0
  6  8  1  0  0  0  0
  6 21  1  0  0  0  0
  8  9  1  0  0  0  0
  8 37  1  0  0  0  0
  8 38  1  0  0  0  0
  9 10  1  0  0  0  0
 10 11  1  0  0  0  0
 10 12  1  0  0  0  0
 10 19  1  0  0  0  0
 12 13  1  0  0  0  0
 12 39  1  0  0  0  0
 12 40  1  0  0  0  0
 13 18  2  0  0  0  0
 13 14  1  0  0  0  0
 14 15  2  0  0  0  0
 14 41  1  0  0  0  0
 15 16  1  0  0  0  0
 15 42  1  0  0  0  0
 16 17  2  0  0  0  0
 16 43  1  0  0  0  0
 17 18  1  0  0  0  0
 17 44  1  0  0  0  0
 18 45  1  0  0  0  0
 19 20  2  0  0  0  0
 19 56  1  0  0  0  0
 21 22  1  0  0  0  0
 21 46  1  0  0  0  0
 22 23  2  0  0  0  0
 22 24  1  0  0  0  0
 24 25  1  0  0  0  0
 25 26  1  0  0  0  0
 25 27  1  0  0  0  0
 25 28  1  0  0  0  0
 26 47  1  0  0  0  0
 26 48  1  0  0  0  0
 26 49  1  0  0  0  0
 27 50  1  0  0  0  0
 27 51  1  0  0  0  0
 27 52  1  0  0  0  0
 28 53  1  0  0  0  0
 28 54  1  0  0  0  0
 28 55  1  0  0  0  0
M  CHG  1  56  -1
M  END
$$$$
ZINC02541720
  -OEChem-08230709463D

 56 56  0     1  0  0  0  0  0999 V2000
    3.6167   10.7226    1.7940 C   0  0  0  0  0  0  0  0  0  0  0  0
    2.4374   11.0569    0.8784 C   0  0  0  0  0  0  0  0  0  0  0  0
    2.9548   11.7300   -0.3944 C   0  0  0  0  0  0  0  0  0  0  0  0
    1.4811   12.0053    1.6043 C   0  0  0  0  0  0  0  0  0  0  0  0
    1.7348    9.8353    0.5287 O   0  0  0  0  0  0  0  0  0  0  0  0
    1.2140    9.1181    1.5421 C   0  0  0  0  0  0  0  0  0  0  0  0
    1.3431    9.5025    2.6875 O   0  0  0  0  0  0  0  0  0  0  0  0
    0.5494    7.9739    1.2862 N   0  0  0  0  0  0  0  0  0  0  0  0
   -0.0835    7.2907    2.3200 C   0  0  0  0  0  0  0  0  0  0  0  0
   -0.6738    7.9930    3.3622 C   0  0  0  0  0  0  0  0  0  0  0  0
   -1.3019    7.3136    4.3861 C   0  0  0  0  0  0  0  0  0  0  0  0
   -1.3499    5.9279    4.3850 C   0  0  0  0  0  0  0  0  0  0  0  0
   -0.7752    5.2124    3.3588 C   0  0  0  0  0  0  0  0  0  0  0  0
   -0.1293    5.8858    2.3149 C   0  0  0  0  0  0  0  0  0  0  0  0
    0.4903    5.1303    1.2200 C   0  0  0  0  0  0  0  0  0  0  0  0
    0.9661    5.7176    0.2712 O   0  0  0  0  0  0  0  0  0  0  0  0
    0.5356    3.6250    1.2743 C   0  0  0  0  0  0  0  0  0  0  0  0
    1.2292    3.0900    0.0199 C   0  0  2  0  0  0  0  0  0  0  0  0
    0.7271    3.4780   -0.8663 H   0  0  0  0  0  0  0  0  0  0  0  0
    1.1660    1.5843    0.0144 C   0  0  0  0  0  0  0  0  0  0  0  0
    2.1861    0.9369    0.0074 O   0  0  0  0  0  0  0  0  0  0  0  0
    2.6297    3.5200    0.0153 N   0  0  0  0  0  0  0  0  0  0  0  0
    3.2986    3.6250   -1.1500 C   0  0  0  0  0  0  0  0  0  0  0  0
    2.7400    3.3630   -2.1969 O   0  0  0  0  0  0  0  0  0  0  0  0
    4.5857    4.0201   -1.1543 O   0  0  0  0  0  0  0  0  0  0  0  0
    5.2431    4.1107   -2.4457 C   0  0  0  0  0  0  0  0  0  0  0  0
    4.5010    5.1180   -3.3263 C   0  0  0  0  0  0  0  0  0  0  0  0
    6.6889    4.5718   -2.2507 C   0  0  0  0  0  0  0  0  0  0  0  0
    5.2324    2.7379   -3.1210 C   0  0  0  0  0  0  0  0  0  0  0  0
    4.2980   10.0469    1.2769 H   0  0  0  0  0  0  0  0  0  0  0  0
    4.1442   11.6396    2.0566 H   0  0  0  0  0  0  0  0  0  0  0  0
    3.2482   10.2430    2.7008 H   0  0  0  0  0  0  0  0  0  0  0  0
    2.1146   11.9681   -1.0467 H   0  0  0  0  0  0  0  0  0  0  0  0
    3.4822   12.6470   -0.1318 H   0  0  0  0  0  0  0  0  0  0  0  0
    3.6361   11.0543   -0.9115 H   0  0  0  0  0  0  0  0  0  0  0  0
    1.1125   11.5258    2.5111 H   0  0  0  0  0  0  0  0  0  0  0  0
    2.0086   12.9223    1.8669 H   0  0  0  0  0  0  0  0  0  0  0  0
    0.6409   12.2435    0.9520 H   0  0  0  0  0  0  0  0  0  0  0  0
    0.5124    7.6266    0.3812 H   0  0  0  0  0  0  0  0  0  0  0  0
   -0.6418    9.0725    3.3713 H   0  0  0  0  0  0  0  0  0  0  0  0
   -1.7597    7.8653    5.1940 H   0  0  0  0  0  0  0  0  0  0  0  0
   -1.8445    5.4071    5.1915 H   0  0  0  0  0  0  0  0  0  0  0  0
   -0.8195    4.1333    3.3607 H   0  0  0  0  0  0  0  0  0  0  0  0
   -0.3962    3.2649    1.3192 H   0  0  0  0  0  0  0  0  0  0  0  0
    1.0899    3.3099    2.1584 H   0  0  0  0  0  0  0  0  0  0  0  0
    3.0756    3.7291    0.8510 H   0  0  0  0  0  0  0  0  0  0  0  0
    4.5086    6.0961   -2.8452 H   0  0  0  0  0  0  0  0  0  0  0  0
    4.9945    5.1861   -4.2958 H   0  0  0  0  0  0  0  0  0  0  0  0
    3.4710    4.7895   -3.4652 H   0  0  0  0  0  0  0  0  0  0  0  0
    7.2177    3.8542   -1.6234 H   0  0  0  0  0  0  0  0  0  0  0  0
    7.1825    4.6399   -3.2202 H   0  0  0  0  0  0  0  0  0  0  0  0
    6.6966    5.5499   -1.7696 H   0  0  0  0  0  0  0  0  0  0  0  0
    4.2024    2.4094   -3.2599 H   0  0  0  0  0  0  0  0  0  0  0  0
    5.7259    2.8059   -4.0904 H   0  0  0  0  0  0  0  0  0  0  0  0
    5.7611    2.0202   -2.4936 H   0  0  0  0  0  0  0  0  0  0  0  0
   -0.0236    0.9626    0.0173 O   0  5  0  0  0  0  0  0  0  0  0  0
  1  2  1  0  0  0  0
  1 30  1  0  0  0  0
  1 31  1  0  0  0  0
  1 32  1  0  0  0  0
  2  3  1  0  0  0  0
  2  4  1  0  0  0  0
  2  5  1  0  0  0  0
  3 33  1  0  0  0  0
  3 34  1  0  0  0  0
  3 35  1  0  0  0  0
  4 36  1  0  0  0  0
  4 37  1  0  0  0  0
  4 38  1  0  0  0  0
  5  6  1  0  0  0  0
  6  7  2  0  0  0  0
  6  8  1  0  0  0  0
  8  9  1  0  0  0  0
  8 39  1  0  0  0  0
  9 14  2  0  0  0  0
  9 10  1  0  0  0  0
 10 11  2  0  0  0  0
 10 40  1  0  0  0  0
 11 12  1  0  0  0  0
 11 41  1  0  0  0  0
 12 13  2  0  0  0  0
 12 42  1  0  0  0  0
 13 14  1  0  0  0  0
 13 43  1  0  0  0  0
 14 15  1  0  0  0  0
 15 16  2  0  0  0  0
 15 17  1  0  0  0  0
 17 18  1  0  0  0  0
 17 44  1  0  0  0  0
 17 45  1  0  0  0  0
 18 19  1  0  0  0  0
 18 20  1  0  0  0  0
 18 22  1  0  0  0  0
 20 21  2  0  0  0  0
 20 56  1  0  0  0  0
 22 23  1  0  0  0  0
 22 46  1  0  0  0  0
 23 24  2  0  0  0  0
 23 25  1  0  0  0  0
 25 26  1  0  0  0  0
 26 27  1  0  0  0  0
 26 28  1  0  0  0  0
 26 29  1  0  0  0  0
 27 47  1  0  0  0  0
 27 48  1  0  0  0  0
 27 49  1  0  0  0  0
 28 50  1  0  0  0  0
 28 51  1  0  0  0  0
 28 52  1  0  0  0  0
 29 53  1  0  0  0  0
 29 54  1  0  0  0  0
 29 55  1  0  0  0  0
M  CHG  1  56  -1
M  END
$$$$
ZINC02545622
  -OEChem-08230709463D

 55 56  0     0  0  0  0  0  0999 V2000
    5.0021    3.0418    2.3458 C   0  0  0  0  0  0  0  0  0  0  0  0
    3.9568    1.9630    2.0551 C   0  0  0  0  0  0  0  0  0  0  0  0
    2.8036    2.5644    1.4631 O   0  0  0  0  0  0  0  0  0  0  0  0
    1.7740    1.7386    1.1409 C   0  0  0  0  0  0  0  0  0  0  0  0
    1.8749    0.3767    1.3910 C   0  0  0  0  0  0  0  0  0  0  0  0
    0.8343   -0.4660    1.0666 C   0  0  0  0  0  0  0  0  0  0  0  0
   -0.3281    0.0509    0.4828 C   0  0  0  0  0  0  0  0  0  0  0  0
   -0.4285    1.4241    0.2307 C   0  0  0  0  0  0  0  0  0  0  0  0
    0.6198    2.2612    0.5593 C   0  0  0  0  0  0  0  0  0  0  0  0
    0.5258    3.5959    0.3158 O   0  0  0  0  0  0  0  0  0  0  0  0
   -0.6855    4.0627   -0.2816 C   0  0  0  0  0  0  0  0  0  0  0  0
   -1.4394   -0.8453    0.1352 C   0  0  0  0  0  0  0  0  0  0  0  0
   -1.2086   -2.1658   -0.0621 C   0  0  0  0  0  0  0  0  0  0  0  0
   -2.3350   -3.0898   -0.2325 C   0  0  0  0  0  0  0  0  0  0  0  0
   -3.4758   -2.6874   -0.1078 O   0  0  0  0  0  0  0  0  0  0  0  0
    0.1045   -2.6481   -0.1033 N   0  0  0  0  0  0  0  0  0  0  0  0
    0.4926   -3.6196    0.7464 C   0  0  0  0  0  0  0  0  0  0  0  0
   -0.3188   -4.1372    1.4894 O   0  0  0  0  0  0  0  0  0  0  0  0
    1.9046   -4.0558    0.7751 C   0  0  0  0  0  0  0  0  0  0  0  0
    2.8375   -3.4677   -0.0807 C   0  0  0  0  0  0  0  0  0  0  0  0
    4.1548   -3.8758   -0.0451 C   0  0  0  0  0  0  0  0  0  0  0  0
    4.5497   -4.8738    0.8281 C   0  0  0  0  0  0  0  0  0  0  0  0
    3.6290   -5.4646    1.6752 C   0  0  0  0  0  0  0  0  0  0  0  0
    2.3098   -5.0618    1.6539 C   0  0  0  0  0  0  0  0  0  0  0  0
    5.9892   -5.3189    0.8569 C   0  0  0  0  0  0  0  0  0  0  0  0
    6.0697   -6.8076    0.5132 C   0  0  0  0  0  0  0  0  0  0  0  0
    6.7923   -4.5148   -0.1675 C   0  0  0  0  0  0  0  0  0  0  0  0
    6.5671   -5.0861    2.2543 C   0  0  0  0  0  0  0  0  0  0  0  0
    5.2858    3.5330    1.4151 H   0  0  0  0  0  0  0  0  0  0  0  0
    4.5834    3.7779    3.0321 H   0  0  0  0  0  0  0  0  0  0  0  0
    5.8817    2.5831    2.7974 H   0  0  0  0  0  0  0  0  0  0  0  0
    3.6730    1.4719    2.9859 H   0  0  0  0  0  0  0  0  0  0  0  0
    4.3755    1.2270    1.3689 H   0  0  0  0  0  0  0  0  0  0  0  0
    2.7713   -0.0232    1.8414 H   0  0  0  0  0  0  0  0  0  0  0  0
    0.9156   -1.5250    1.2623 H   0  0  0  0  0  0  0  0  0  0  0  0
   -1.3215    1.8273   -0.2237 H   0  0  0  0  0  0  0  0  0  0  0  0
   -0.8242    3.5782   -1.2481 H   0  0  0  0  0  0  0  0  0  0  0  0
   -1.5270    3.8236    0.3687 H   0  0  0  0  0  0  0  0  0  0  0  0
   -0.6293    5.1422   -0.4211 H   0  0  0  0  0  0  0  0  0  0  0  0
   -2.4403   -0.4515    0.0370 H   0  0  0  0  0  0  0  0  0  0  0  0
    0.7354   -2.2831   -0.7434 H   0  0  0  0  0  0  0  0  0  0  0  0
    2.5295   -2.6920   -0.7661 H   0  0  0  0  0  0  0  0  0  0  0  0
    4.8786   -3.4183   -0.7033 H   0  0  0  0  0  0  0  0  0  0  0  0
    3.9438   -6.2430    2.3545 H   0  0  0  0  0  0  0  0  0  0  0  0
    1.5922   -5.5235    2.3160 H   0  0  0  0  0  0  0  0  0  0  0  0
    5.6580   -6.9734   -0.4823 H   0  0  0  0  0  0  0  0  0  0  0  0
    7.1108   -7.1296    0.5341 H   0  0  0  0  0  0  0  0  0  0  0  0
    5.4975   -7.3804    1.2430 H   0  0  0  0  0  0  0  0  0  0  0  0
    6.7350   -3.4542    0.0773 H   0  0  0  0  0  0  0  0  0  0  0  0
    7.8334   -4.8368   -0.1466 H   0  0  0  0  0  0  0  0  0  0  0  0
    6.3806   -4.6807   -1.1631 H   0  0  0  0  0  0  0  0  0  0  0  0
    5.9950   -5.6589    2.9842 H   0  0  0  0  0  0  0  0  0  0  0  0
    7.6083   -5.4081    2.2752 H   0  0  0  0  0  0  0  0  0  0  0  0
    6.5098   -4.0255    2.4992 H   0  0  0  0  0  0  0  0  0  0  0  0
   -2.1054   -4.3860   -0.5275 O   0  5  0  0  0  0  0  0  0  0  0  0
  1  2  1  0  0  0  0
  1 29  1  0  0  0  0
  1 30  1  0  0  0  0
  1 31  1  0  0  0  0
  2  3  1  0  0  0  0
  2 32  1  0  0  0  0
  2 33  1  0  0  0  0
  3  4  1  0  0  0  0
  4  9  2  0  0  0  0
  4  5  1  0  0  0  0
  5  6  2  0  0  0  0
  5 34  1  0  0  0  0
  6  7  1  0  0  0  0
  6 35  1  0  0  0  0
  7  8  2  0  0  0  0
  7 12  1  0  0  0  0
  8  9  1  0  0  0  0
  8 36  1  0  0  0  0
  9 10  1  0  0  0  0
 10 11  1  0  0  0  0
 11 37  1  0  0  0  0
 11 38  1  0  0  0  0
 11 39  1  0  0  0  0
 12 13  2  0  0  0  0
 12 40  1  0  0  0  0
 13 14  1  0  0  0  0
 13 16  1  0  0  0  0
 14 15  2  0  0  0  0
 14 55  1  0  0  0  0
 16 17  1  0  0  0  0
 16 41  1  0  0  0  0
 17 18  2  0  0  0  0
 17 19  1  0  0  0  0
 19 24  2  0  0  0  0
 19 20  1  0  0  0  0
 20 21  2  0  0  0  0
 20 42  1  0  0  0  0
 21 22  1  0  0  0  0
 21 43  1  0  0  0  0
 22 23  2  0  0  0  0
 22 25  1  0  0  0  0
 23 24  1  0  0  0  0
 23 44  1  0  0  0  0
 24 45  1  0  0  0  0
 25 26  1  0  0  0  0
 25 27  1  0  0  0  0
 25 28  1  0  0  0  0
 26 46  1  0  0  0  0
 26 47  1  0  0  0  0
 26 48  1  0  0  0  0
 27 49  1  0  0  0  0
 27 50  1  0  0  0  0
 27 51  1  0  0  0  0
 28 52  1  0  0  0  0
 28 53  1  0  0  0  0
 28 54  1  0  0  0  0
M  CHG  1  55  -1
M  END
$$$$
ZINC02545667
  -OEChem-08230709463D

 52 53  0     0  0  0  0  0  0999 V2000
   -1.8047    3.2971    5.4967 C   0  0  0  0  0  0  0  0  0  0  0  0
   -1.6929    2.1502    4.4902 C   0  0  0  0  0  0  0  0  0  0  0  0
   -0.7639    1.1790    4.9759 O   0  0  0  0  0  0  0  0  0  0  0  0
   -0.5471    0.0872    4.1946 C   0  0  0  0  0  0  0  0  0  0  0  0
   -1.2127   -0.0440    2.9916 C   0  0  0  0  0  0  0  0  0  0  0  0
   -0.9870   -1.1692    2.1902 C   0  0  0  0  0  0  0  0  0  0  0  0
   -0.0879   -2.1551    2.6128 C   0  0  0  0  0  0  0  0  0  0  0  0
    0.5716   -2.0158    3.8144 C   0  0  0  0  0  0  0  0  0  0  0  0
    0.3465   -0.8995    4.6087 C   0  0  0  0  0  0  0  0  0  0  0  0
    0.9999   -0.7679    5.7926 O   0  0  0  0  0  0  0  0  0  0  0  0
   -1.6915   -1.3146    0.9089 C   0  0  0  0  0  0  0  0  0  0  0  0
   -1.1767   -2.1085   -0.0610 C   0  0  0  0  0  0  0  0  0  0  0  0
   -1.9612   -2.3963   -1.2665 C   0  0  0  0  0  0  0  0  0  0  0  0
   -3.1064   -1.9971   -1.3564 O   0  0  0  0  0  0  0  0  0  0  0  0
    0.1036   -2.6539    0.0875 N   0  0  0  0  0  0  0  0  0  0  0  0
    0.2780   -3.9891    0.0307 C   0  0  0  0  0  0  0  0  0  0  0  0
   -0.6611   -4.7141   -0.2348 O   0  0  0  0  0  0  0  0  0  0  0  0
    1.6111   -4.5720    0.2913 C   0  0  0  0  0  0  0  0  0  0  0  0
    2.6928   -3.7420    0.5908 C   0  0  0  0  0  0  0  0  0  0  0  0
    3.9331   -4.2930    0.8381 C   0  0  0  0  0  0  0  0  0  0  0  0
    4.1089   -5.6641    0.7786 C   0  0  0  0  0  0  0  0  0  0  0  0
    3.0421   -6.4920    0.4771 C   0  0  0  0  0  0  0  0  0  0  0  0
    1.7952   -5.9545    0.2333 C   0  0  0  0  0  0  0  0  0  0  0  0
    5.4681   -6.2584    1.0437 C   0  0  0  0  0  0  0  0  0  0  0  0
    5.9357   -7.0327   -0.1902 C   0  0  0  0  0  0  0  0  0  0  0  0
    6.4637   -5.1378    1.3502 C   0  0  0  0  0  0  0  0  0  0  0  0
    5.3849   -7.2080    2.2405 C   0  0  0  0  0  0  0  0  0  0  0  0
   -2.1527    2.9081    6.4536 H   0  0  0  0  0  0  0  0  0  0  0  0
   -0.8277    3.7624    5.6273 H   0  0  0  0  0  0  0  0  0  0  0  0
   -2.5133    4.0379    5.1262 H   0  0  0  0  0  0  0  0  0  0  0  0
   -1.3448    2.5392    3.5333 H   0  0  0  0  0  0  0  0  0  0  0  0
   -2.6699    1.6849    4.3595 H   0  0  0  0  0  0  0  0  0  0  0  0
   -1.9022    0.7218    2.6679 H   0  0  0  0  0  0  0  0  0  0  0  0
    0.0892   -3.0245    1.9970 H   0  0  0  0  0  0  0  0  0  0  0  0
    1.2651   -2.7771    4.1396 H   0  0  0  0  0  0  0  0  0  0  0  0
    1.8465   -0.3055    5.7253 H   0  0  0  0  0  0  0  0  0  0  0  0
   -2.6196   -0.7888    0.7402 H   0  0  0  0  0  0  0  0  0  0  0  0
    0.8654   -2.0709    0.2312 H   0  0  0  0  0  0  0  0  0  0  0  0
    2.5580   -2.6713    0.6328 H   0  0  0  0  0  0  0  0  0  0  0  0
    4.7698   -3.6523    1.0746 H   0  0  0  0  0  0  0  0  0  0  0  0
    3.1860   -7.5615    0.4322 H   0  0  0  0  0  0  0  0  0  0  0  0
    0.9633   -6.6019   -0.0015 H   0  0  0  0  0  0  0  0  0  0  0  0
    5.9950   -6.3562   -1.0428 H   0  0  0  0  0  0  0  0  0  0  0  0
    6.9189   -7.4625    0.0016 H   0  0  0  0  0  0  0  0  0  0  0  0
    5.2264   -7.8310   -0.4085 H   0  0  0  0  0  0  0  0  0  0  0  0
    6.1306   -4.5861    2.2293 H   0  0  0  0  0  0  0  0  0  0  0  0
    7.4469   -5.5676    1.5420 H   0  0  0  0  0  0  0  0  0  0  0  0
    6.5230   -4.4612    0.4976 H   0  0  0  0  0  0  0  0  0  0  0  0
    4.6756   -8.0063    2.0222 H   0  0  0  0  0  0  0  0  0  0  0  0
    6.3680   -7.6378    2.4323 H   0  0  0  0  0  0  0  0  0  0  0  0
    5.0518   -6.6564    3.1196 H   0  0  0  0  0  0  0  0  0  0  0  0
   -1.4124   -3.1038   -2.2754 O   0  5  0  0  0  0  0  0  0  0  0  0
  1  2  1  0  0  0  0
  1 28  1  0  0  0  0
  1 29  1  0  0  0  0
  1 30  1  0  0  0  0
  2  3  1  0  0  0  0
  2 31  1  0  0  0  0
  2 32  1  0  0  0  0
  3  4  1  0  0  0  0
  4  9  2  0  0  0  0
  4  5  1  0  0  0  0
  5  6  2  0  0  0  0
  5 33  1  0  0  0  0
  6  7  1  0  0  0  0
  6 11  1  0  0  0  0
  7  8  2  0  0  0  0
  7 34  1  0  0  0  0
  8  9  1  0  0  0  0
  8 35  1  0  0  0  0
  9 10  1  0  0  0  0
 10 36  1  0  0  0  0
 11 12  2  0  0  0  0
 11 37  1  0  0  0  0
 12 13  1  0  0  0  0
 12 15  1  0  0  0  0
 13 14  2  0  0  0  0
 13 52  1  0  0  0  0
 15 16  1  0  0  0  0
 15 38  1  0  0  0  0
 16 17  2  0  0  0  0
 16 18  1  0  0  0  0
 18 23  2  0  0  0  0
 18 19  1  0  0  0  0
 19 20  2  0  0  0  0
 19 39  1  0  0  0  0
 20 21  1  0  0  0  0
 20 40  1  0  0  0  0
 21 22  2  0  0  0  0
 21 24  1  0  0  0  0
 22 23  1  0  0  0  0
 22 41  1  0  0  0  0
 23 42  1  0  0  0  0
 24 25  1  0  0  0  0
 24 26  1  0  0  0  0
 24 27  1  0  0  0  0
 25 43  1  0  0  0  0
 25 44  1  0  0  0  0
 25 45  1  0  0  0  0
 26 46  1  0  0  0  0
 26 47  1  0  0  0  0
 26 48  1  0  0  0  0
 27 49  1  0  0  0  0
 27 50  1  0  0  0  0
 27 51  1  0  0  0  0
M  CHG  1  52  -1
M  END
$$$$
ZINC02545685
  -OEChem-08230709463D

 58 59  0     0  0  0  0  0  0999 V2000
    4.6976    4.1434    2.2229 C   0  0  0  0  0  0  0  0  0  0  0  0
    3.4144    4.3197    3.0373 C   0  0  0  0  0  0  0  0  0  0  0  0
    3.6814    5.2634    4.2117 C   0  0  0  0  0  0  0  0  0  0  0  0
    2.3937    4.8730    2.2042 O   0  0  0  0  0  0  0  0  0  0  0  0
    1.7135    4.0092    1.4060 C   0  0  0  0  0  0  0  0  0  0  0  0
    2.1050    2.6792    1.3337 C   0  0  0  0  0  0  0  0  0  0  0  0
    1.4199    1.7985    0.5255 C   0  0  0  0  0  0  0  0  0  0  0  0
    0.3258    2.2445   -0.2251 C   0  0  0  0  0  0  0  0  0  0  0  0
   -0.0682    3.5856   -0.1511 C   0  0  0  0  0  0  0  0  0  0  0  0
    0.6246    4.4612    0.6619 C   0  0  0  0  0  0  0  0  0  0  0  0
    0.2447    5.7649    0.7364 O   0  0  0  0  0  0  0  0  0  0  0  0
   -0.8792    6.1592   -0.0532 C   0  0  0  0  0  0  0  0  0  0  0  0
   -0.4066    1.3079   -1.0884 C   0  0  0  0  0  0  0  0  0  0  0  0
    0.1923    0.1695   -1.5144 C   0  0  0  0  0  0  0  0  0  0  0  0
   -0.5854   -0.8414   -2.2389 C   0  0  0  0  0  0  0  0  0  0  0  0
   -1.7838   -0.6964   -2.3859 O   0  0  0  0  0  0  0  0  0  0  0  0
    1.5527   -0.0418   -1.2631 N   0  0  0  0  0  0  0  0  0  0  0  0
    1.9510   -1.1384   -0.5885 C   0  0  0  0  0  0  0  0  0  0  0  0
    1.1378   -1.9831   -0.2670 O   0  0  0  0  0  0  0  0  0  0  0  0
    3.3765   -1.3142   -0.2394 C   0  0  0  0  0  0  0  0  0  0  0  0
    4.3136   -0.3490   -0.6120 C   0  0  0  0  0  0  0  0  0  0  0  0
    5.6417   -0.5167   -0.2784 C   0  0  0  0  0  0  0  0  0  0  0  0
    6.0473   -1.6439    0.4139 C   0  0  0  0  0  0  0  0  0  0  0  0
    5.1244   -2.6069    0.7816 C   0  0  0  0  0  0  0  0  0  0  0  0
    3.7924   -2.4488    0.4593 C   0  0  0  0  0  0  0  0  0  0  0  0
    7.5008   -1.8234    0.7693 C   0  0  0  0  0  0  0  0  0  0  0  0
    8.0280   -3.1081    0.1270 C   0  0  0  0  0  0  0  0  0  0  0  0
    8.3036   -0.6280    0.2523 C   0  0  0  0  0  0  0  0  0  0  0  0
    7.6463   -1.9164    2.2895 C   0  0  0  0  0  0  0  0  0  0  0  0
    5.4762    3.7213    2.8584 H   0  0  0  0  0  0  0  0  0  0  0  0
    4.5074    3.4711    1.3863 H   0  0  0  0  0  0  0  0  0  0  0  0
    5.0234    5.1120    1.8439 H   0  0  0  0  0  0  0  0  0  0  0  0
    3.0886    3.3511    3.4164 H   0  0  0  0  0  0  0  0  0  0  0  0
    2.7672    5.3891    4.7919 H   0  0  0  0  0  0  0  0  0  0  0  0
    4.4599    4.8414    4.8472 H   0  0  0  0  0  0  0  0  0  0  0  0
    4.0072    6.2321    3.8326 H   0  0  0  0  0  0  0  0  0  0  0  0
    2.9490    2.3340    1.9124 H   0  0  0  0  0  0  0  0  0  0  0  0
    1.7271    0.7646    0.4707 H   0  0  0  0  0  0  0  0  0  0  0  0
   -0.9089    3.9358   -0.7316 H   0  0  0  0  0  0  0  0  0  0  0  0
   -0.6656    5.9761   -1.1063 H   0  0  0  0  0  0  0  0  0  0  0  0
   -1.7539    5.5817    0.2458 H   0  0  0  0  0  0  0  0  0  0  0  0
   -1.0753    7.2206    0.0984 H   0  0  0  0  0  0  0  0  0  0  0  0
   -1.4222    1.5268   -1.3834 H   0  0  0  0  0  0  0  0  0  0  0  0
    2.2089    0.6011   -1.5745 H   0  0  0  0  0  0  0  0  0  0  0  0
    3.9991    0.5290   -1.1565 H   0  0  0  0  0  0  0  0  0  0  0  0
    6.3671    0.2316   -0.5619 H   0  0  0  0  0  0  0  0  0  0  0  0
    5.4476   -3.4845    1.3218 H   0  0  0  0  0  0  0  0  0  0  0  0
    3.0729   -3.2011    0.7473 H   0  0  0  0  0  0  0  0  0  0  0  0
    7.9244   -3.0418   -0.9560 H   0  0  0  0  0  0  0  0  0  0  0  0
    9.0793   -3.2378    0.3841 H   0  0  0  0  0  0  0  0  0  0  0  0
    7.4561   -3.9597    0.4954 H   0  0  0  0  0  0  0  0  0  0  0  0
    7.9280    0.2872    0.7099 H   0  0  0  0  0  0  0  0  0  0  0  0
    9.3549   -0.7578    0.5094 H   0  0  0  0  0  0  0  0  0  0  0  0
    8.1999   -0.5617   -0.8307 H   0  0  0  0  0  0  0  0  0  0  0  0
    7.0743   -2.7680    2.6579 H   0  0  0  0  0  0  0  0  0  0  0  0
    8.6975   -2.0462    2.5467 H   0  0  0  0  0  0  0  0  0  0  0  0
    7.2706   -1.0012    2.7471 H   0  0  0  0  0  0  0  0  0  0  0  0
    0.0288   -1.9320   -2.7420 O   0  5  0  0  0  0  0  0  0  0  0  0
  1  2  1  0  0  0  0
  1 30  1  0  0  0  0
  1 31  1  0  0  0  0
  1 32  1  0  0  0  0
  2  3  1  0  0  0  0
  2  4  1  0  0  0  0
  2 33  1  0  0  0  0
  3 34  1  0  0  0  0
  3 35  1  0  0  0  0
  3 36  1  0  0  0  0
  4  5  1  0  0  0  0
  5 10  2  0  0  0  0
  5  6  1  0  0  0  0
  6  7  2  0  0  0  0
  6 37  1  0  0  0  0
  7  8  1  0  0  0  0
  7 38  1  0  0  0  0
  8  9  2  0  0  0  0
  8 13  1  0  0  0  0
  9 10  1  0  0  0  0
  9 39  1  0  0  0  0
 10 11  1  0  0  0  0
 11 12  1  0  0  0  0
 12 40  1  0  0  0  0
 12 41  1  0  0  0  0
 12 42  1  0  0  0  0
 13 14  2  0  0  0  0
 13 43  1  0  0  0  0
 14 15  1  0  0  0  0
 14 17  1  0  0  0  0
 15 16  2  0  0  0  0
 15 58  1  0  0  0  0
 17 18  1  0  0  0  0
 17 44  1  0  0  0  0
 18 19  2  0  0  0  0
 18 20  1  0  0  0  0
 20 25  2  0  0  0  0
 20 21  1  0  0  0  0
 21 22  2  0  0  0  0
 21 45  1  0  0  0  0
 22 23  1  0  0  0  0
 22 46  1  0  0  0  0
 23 24  2  0  0  0  0
 23 26  1  0  0  0  0
 24 25  1  0  0  0  0
 24 47  1  0  0  0  0
 25 48  1  0  0  0  0
 26 27  1  0  0  0  0
 26 28  1  0  0  0  0
 26 29  1  0  0  0  0
 27 49  1  0  0  0  0
 27 50  1  0  0  0  0
 27 51  1  0  0  0  0
 28 52  1  0  0  0  0
 28 53  1  0  0  0  0
 28 54  1  0  0  0  0
 29 55  1  0  0  0  0
 29 56  1  0  0  0  0
 29 57  1  0  0  0  0
M  CHG  1  58  -1
M  END
$$$$
ZINC02549939
  -OEChem-08230709463D

 55 58  0     1  0  0  0  0  0999 V2000
   -0.7924    6.2711    0.0429 C   0  0  0  0  0  0  0  0  0  0  0  0
    0.2050    5.1982    0.0281 N   0  0  0  0  0  0  0  0  0  0  0  0
    1.5605    5.3850    0.0161 C   0  0  0  0  0  0  0  0  0  0  0  0
    2.1862    4.1975    0.0037 C   0  0  0  0  0  0  0  0  0  0  0  0
    1.1465    3.1655    0.0081 C   0  0  0  0  0  0  0  0  0  0  0  0
   -0.0819    3.8515    0.0235 C   0  0  0  0  0  0  0  0  0  0  0  0
   -1.2679    3.1250    0.0310 C   0  0  0  0  0  0  0  0  0  0  0  0
   -1.2269    1.7478    0.0174 C   0  0  0  0  0  0  0  0  0  0  0  0
   -0.0126    1.0758    0.0080 C   0  0  0  0  0  0  0  0  0  0  0  0
    1.1647    1.7697    0.0004 C   0  0  0  0  0  0  0  0  0  0  0  0
    3.6757    3.9692   -0.0122 C   0  0  1  0  0  0  0  0  0  0  0  0
    3.8791    2.8984   -0.0202 H   0  0  0  0  0  0  0  0  0  0  0  0
    4.2768    4.6119   -1.2638 C   0  0  0  0  0  0  0  0  0  0  0  0
    5.7446    4.2796   -1.3436 C   0  0  0  0  0  0  0  0  0  0  0  0
    6.2590    3.5962   -0.4842 O   0  0  0  0  0  0  0  0  0  0  0  0
    6.5535    4.7846   -2.4645 C   0  0  0  0  0  0  0  0  0  0  0  0
    5.9625    5.5683   -3.4607 C   0  0  0  0  0  0  0  0  0  0  0  0
    6.7282    6.0416   -4.5052 C   0  0  0  0  0  0  0  0  0  0  0  0
    8.0757    5.7339   -4.5751 C   0  0  0  0  0  0  0  0  0  0  0  0
    8.6669    4.9549   -3.5957 C   0  0  0  0  0  0  0  0  0  0  0  0
    7.9159    4.4784   -2.5421 C   0  0  0  0  0  0  0  0  0  0  0  0
    8.9039    6.2501   -5.7235 C   0  0  0  0  0  0  0  0  0  0  0  0
    8.8703    7.7798   -5.7293 C   0  0  0  0  0  0  0  0  0  0  0  0
    9.7111    8.3039   -6.8953 C   0  0  0  0  0  0  0  0  0  0  0  0
    9.1405    7.7762   -8.2132 C   0  0  0  0  0  0  0  0  0  0  0  0
    9.1740    6.2466   -8.2074 C   0  0  0  0  0  0  0  0  0  0  0  0
    8.3333    5.7225   -7.0414 C   0  0  0  0  0  0  0  0  0  0  0  0
    4.2920    4.5883    1.2158 C   0  0  0  0  0  0  0  0  0  0  0  0
    3.5933    5.1567    2.0212 O   0  0  0  0  0  0  0  0  0  0  0  0
   -1.0492    6.5427   -0.9810 H   0  0  0  0  0  0  0  0  0  0  0  0
   -1.6868    5.9285    0.5632 H   0  0  0  0  0  0  0  0  0  0  0  0
   -0.3832    7.1404    0.5577 H   0  0  0  0  0  0  0  0  0  0  0  0
    2.0539    6.3457    0.0169 H   0  0  0  0  0  0  0  0  0  0  0  0
   -2.2179    3.6387    0.0424 H   0  0  0  0  0  0  0  0  0  0  0  0
   -2.1490    1.1855    0.0184 H   0  0  0  0  0  0  0  0  0  0  0  0
    0.0021   -0.0041    0.0020 H   0  0  0  0  0  0  0  0  0  0  0  0
    2.1059    1.2401   -0.0110 H   0  0  0  0  0  0  0  0  0  0  0  0
    3.8108    4.2602   -2.0757 H   0  0  0  0  0  0  0  0  0  0  0  0
    4.1514    5.6934   -1.2128 H   0  0  0  0  0  0  0  0  0  0  0  0
    4.9101    5.8055   -3.4099 H   0  0  0  0  0  0  0  0  0  0  0  0
    6.2742    6.6504   -5.2732 H   0  0  0  0  0  0  0  0  0  0  0  0
    9.7191    4.7194   -3.6571 H   0  0  0  0  0  0  0  0  0  0  0  0
    8.3784    3.8701   -1.7789 H   0  0  0  0  0  0  0  0  0  0  0  0
    9.9332    5.9097   -5.6111 H   0  0  0  0  0  0  0  0  0  0  0  0
    7.8410    8.1202   -5.8418 H   0  0  0  0  0  0  0  0  0  0  0  0
    9.2768    8.1557   -4.7904 H   0  0  0  0  0  0  0  0  0  0  0  0
   10.7404    7.9635   -6.7828 H   0  0  0  0  0  0  0  0  0  0  0  0
    9.6872    9.3936   -6.8994 H   0  0  0  0  0  0  0  0  0  0  0  0
    9.7394    8.1496   -9.0438 H   0  0  0  0  0  0  0  0  0  0  0  0
    8.1111    8.1167   -8.3256 H   0  0  0  0  0  0  0  0  0  0  0  0
   10.2034    5.9062   -8.0949 H   0  0  0  0  0  0  0  0  0  0  0  0
    8.7675    5.8707   -9.1463 H   0  0  0  0  0  0  0  0  0  0  0  0
    8.3572    4.6328   -7.0373 H   0  0  0  0  0  0  0  0  0  0  0  0
    7.3039    6.0629   -7.1539 H   0  0  0  0  0  0  0  0  0  0  0  0
    5.6170    4.5084    1.4148 O   0  5  0  0  0  0  0  0  0  0  0  0
  1  2  1  0  0  0  0
  1 30  1  0  0  0  0
  1 31  1  0  0  0  0
  1 32  1  0  0  0  0
  2  6  1  0  0  0  0
  2  3  1  0  0  0  0
  3  4  2  0  0  0  0
  3 33  1  0  0  0  0
  4  5  1  0  0  0  0
  4 11  1  0  0  0  0
  5 10  2  0  0  0  0
  5  6  1  0  0  0  0
  6  7  2  0  0  0  0
  7  8  1  0  0  0  0
  7 34  1  0  0  0  0
  8  9  2  0  0  0  0
  8 35  1  0  0  0  0
  9 10  1  0  0  0  0
  9 36  1  0  0  0  0
 10 37  1  0  0  0  0
 11 12  1  0  0  0  0
 11 13  1  0  0  0  0
 11 28  1  0  0  0  0
 13 14  1  0  0  0  0
 13 38  1  0  0  0  0
 13 39  1  0  0  0  0
 14 15  2  0  0  0  0
 14 16  1  0  0  0  0
 16 21  2  0  0  0  0
 16 17  1  0  0  0  0
 17 18  2  0  0  0  0
 17 40  1  0  0  0  0
 18 19  1  0  0  0  0
 18 41  1  0  0  0  0
 19 20  2  0  0  0  0
 19 22  1  0  0  0  0
 20 21  1  0  0  0  0
 20 42  1  0  0  0  0
 21 43  1  0  0  0  0
 22 27  1  0  0  0  0
 22 23  1  0  0  0  0
 22 44  1  0  0  0  0
 23 24  1  0  0  0  0
 23 45  1  0  0  0  0
 23 46  1  0  0  0  0
 24 25  1  0  0  0  0
 24 47  1  0  0  0  0
 24 48  1  0  0  0  0
 25 26  1  0  0  0  0
 25 49  1  0  0  0  0
 25 50  1  0  0  0  0
 26 27  1  0  0  0  0
 26 51  1  0  0  0  0
 26 52  1  0  0  0  0
 27 53  1  0  0  0  0
 27 54  1  0  0  0  0
 28 29  2  0  0  0  0
 28 55  1  0  0  0  0
M  CHG  1  55  -1
M  END
$$$$
ZINC02554996
  -OEChem-08230709463D

 52 54  0     1  0  0  0  0  0999 V2000
   -8.7771    7.9640    0.9288 C   0  0  0  0  0  0  0  0  0  0  0  0
   -7.8056    7.7018   -0.2237 C   0  0  0  0  0  0  0  0  0  0  0  0
   -8.1720    8.5928   -1.4123 C   0  0  0  0  0  0  0  0  0  0  0  0
   -7.8943    6.2326   -0.6413 C   0  0  0  0  0  0  0  0  0  0  0  0
   -6.4517    8.0017    0.2067 O   0  0  0  0  0  0  0  0  0  0  0  0
   -5.9725    7.2993    1.2507 C   0  0  0  0  0  0  0  0  0  0  0  0
   -6.6667    6.4587    1.7873 O   0  0  0  0  0  0  0  0  0  0  0  0
   -4.7228    7.5286    1.7004 N   0  0  0  0  0  0  0  0  0  0  0  0
   -4.2014    6.7643    2.8363 C   0  0  1  0  0  0  0  0  0  0  0  0
   -4.5921    5.7474    2.8001 H   0  0  0  0  0  0  0  0  0  0  0  0
   -2.6734    6.7264    2.7671 C   0  0  0  0  0  0  0  0  0  0  0  0
   -2.1577    5.9353    1.2183 S   0  0  0  0  0  0  0  0  0  0  0  0
   -0.3455    5.9689    1.2905 C   0  0  0  0  0  0  0  0  0  0  0  0
    0.2273    5.3234    0.0272 C   0  0  2  0  0  0  0  0  0  0  0  0
   -0.0641    3.8428    0.0224 C   0  0  0  0  0  0  0  0  0  0  0  0
   -1.2453    3.1318    0.0294 C   0  0  0  0  0  0  0  0  0  0  0  0
   -1.2212    1.7483    0.0173 C   0  0  0  0  0  0  0  0  0  0  0  0
   -0.0126    1.0758    0.0080 C   0  0  0  0  0  0  0  0  0  0  0  0
    1.1742    1.7791    0.0004 C   0  0  0  0  0  0  0  0  0  0  0  0
    1.1575    3.1749    0.0076 C   0  0  0  0  0  0  0  0  0  0  0  0
    2.2622    4.1657    0.0022 C   0  0  0  0  0  0  0  0  0  0  0  0
    1.7308    5.4525    0.0137 C   0  0  0  0  0  0  0  0  0  0  0  0
    2.5657    6.5497    0.0110 C   0  0  0  0  0  0  0  0  0  0  0  0
    3.9383    6.3757   -0.0032 C   0  0  0  0  0  0  0  0  0  0  0  0
    4.4757    5.1012   -0.0147 C   0  0  0  0  0  0  0  0  0  0  0  0
    3.6479    3.9977   -0.0116 C   0  0  0  0  0  0  0  0  0  0  0  0
   -4.6298    7.4215    4.1230 C   0  0  0  0  0  0  0  0  0  0  0  0
   -5.3018    8.4253    4.0941 O   0  0  0  0  0  0  0  0  0  0  0  0
   -8.7138    9.0107    1.2263 H   0  0  0  0  0  0  0  0  0  0  0  0
   -9.7934    7.7389    0.6057 H   0  0  0  0  0  0  0  0  0  0  0  0
   -8.5160    7.3292    1.7756 H   0  0  0  0  0  0  0  0  0  0  0  0
   -7.4799    8.4060   -2.2334 H   0  0  0  0  0  0  0  0  0  0  0  0
   -9.1884    8.3677   -1.7355 H   0  0  0  0  0  0  0  0  0  0  0  0
   -8.1088    9.6395   -1.1148 H   0  0  0  0  0  0  0  0  0  0  0  0
   -7.6333    5.5978    0.2054 H   0  0  0  0  0  0  0  0  0  0  0  0
   -8.9107    6.0074   -0.9645 H   0  0  0  0  0  0  0  0  0  0  0  0
   -7.2022    6.0458   -1.4624 H   0  0  0  0  0  0  0  0  0  0  0  0
   -4.1687    8.1996    1.2720 H   0  0  0  0  0  0  0  0  0  0  0  0
   -2.2855    6.1577    3.6123 H   0  0  0  0  0  0  0  0  0  0  0  0
   -2.2827    7.7433    2.8034 H   0  0  0  0  0  0  0  0  0  0  0  0
   -0.0065    5.4162    2.1667 H   0  0  0  0  0  0  0  0  0  0  0  0
   -0.0037    7.0018    1.3578 H   0  0  0  0  0  0  0  0  0  0  0  0
   -0.1976    5.7924   -0.8603 H   0  0  0  0  0  0  0  0  0  0  0  0
   -2.1901    3.6550    0.0409 H   0  0  0  0  0  0  0  0  0  0  0  0
   -2.1474    1.1928    0.0191 H   0  0  0  0  0  0  0  0  0  0  0  0
    0.0021   -0.0041    0.0020 H   0  0  0  0  0  0  0  0  0  0  0  0
    2.1156    1.2500   -0.0107 H   0  0  0  0  0  0  0  0  0  0  0  0
    2.1480    7.5457    0.0203 H   0  0  0  0  0  0  0  0  0  0  0  0
    4.5910    7.2362   -0.0057 H   0  0  0  0  0  0  0  0  0  0  0  0
    5.5476    4.9695   -0.0254 H   0  0  0  0  0  0  0  0  0  0  0  0
    4.0717    3.0044   -0.0203 H   0  0  0  0  0  0  0  0  0  0  0  0
   -4.2650    6.8918    5.3011 O   0  5  0  0  0  0  0  0  0  0  0  0
  1  2  1  0  0  0  0
  1 29  1  0  0  0  0
  1 30  1  0  0  0  0
  1 31  1  0  0  0  0
  2  3  1  0  0  0  0
  2  4  1  0  0  0  0
  2  5  1  0  0  0  0
  3 32  1  0  0  0  0
  3 33  1  0  0  0  0
  3 34  1  0  0  0  0
  4 35  1  0  0  0  0
  4 36  1  0  0  0  0
  4 37  1  0  0  0  0
  5  6  1  0  0  0  0
  6  7  2  0  0  0  0
  6  8  1  0  0  0  0
  8  9  1  0  0  0  0
  8 38  1  0  0  0  0
  9 10  1  0  0  0  0
  9 11  1  0  0  0  0
  9 27  1  0  0  0  0
 11 12  1  0  0  0  0
 11 39  1  0  0  0  0
 11 40  1  0  0  0  0
 12 13  1  0  0  0  0
 13 14  1  0  0  0  0
 13 41  1  0  0  0  0
 13 42  1  0  0  0  0
 14 22  1  0  0  0  0
 14 15  1  0  0  0  0
 14 43  1  0  0  0  0
 15 20  2  0  0  0  0
 15 16  1  0  0  0  0
 16 17  2  0  0  0  0
 16 44  1  0  0  0  0
 17 18  1  0  0  0  0
 17 45  1  0  0  0  0
 18 19  2  0  0  0  0
 18 46  1  0  0  0  0
 19 20  1  0  0  0  0
 19 47  1  0  0  0  0
 20 21  1  0  0  0  0
 21 26  2  0  0  0  0
 21 22  1  0  0  0  0
 22 23  2  0  0  0  0
 23 24  1  0  0  0  0
 23 48  1  0  0  0  0
 24 25  2  0  0  0  0
 24 49  1  0  0  0  0
 25 26  1  0  0  0  0
 25 50  1  0  0  0  0
 26 51  1  0  0  0  0
 27 28  2  0  0  0  0
 27 52  1  0  0  0  0
M  CHG  1  52  -1
M  END
$$$$
ZINC02559998
  -OEChem-08230709463D

 52 53  0     1  0  0  0  0  0999 V2000
   -0.4457    0.5284    5.9048 C   0  0  0  0  0  0  0  0  0  0  0  0
   -0.8346   -0.8916    5.4888 C   0  0  0  0  0  0  0  0  0  0  0  0
   -2.1862   -1.2525    6.1083 C   0  0  0  0  0  0  0  0  0  0  0  0
    0.2137   -1.8611    5.9706 C   0  0  0  0  0  0  0  0  0  0  0  0
    0.9325   -1.5857    7.1181 C   0  0  0  0  0  0  0  0  0  0  0  0
    1.8944   -2.4796    7.5670 C   0  0  0  0  0  0  0  0  0  0  0  0
    2.1415   -3.6445    6.8571 C   0  0  0  0  0  0  0  0  0  0  0  0
    1.4229   -3.9158    5.7030 C   0  0  0  0  0  0  0  0  0  0  0  0
    0.4584   -3.0213    5.2611 C   0  0  0  0  0  0  0  0  0  0  0  0
    1.6626   -5.0571    5.0053 O   0  0  0  0  0  0  0  0  0  0  0  0
    2.6693   -5.9319    5.5183 C   0  0  0  0  0  0  0  0  0  0  0  0
    2.5975   -2.2106    8.6984 O   0  0  0  0  0  0  0  0  0  0  0  0
    3.5760   -3.1722    9.0982 C   0  0  0  0  0  0  0  0  0  0  0  0
   -0.9311   -0.9628    4.0417 O   0  0  0  0  0  0  0  0  0  0  0  0
   -1.8286   -0.1534    3.4484 C   0  0  0  0  0  0  0  0  0  0  0  0
   -2.5127    0.5920    4.1214 O   0  0  0  0  0  0  0  0  0  0  0  0
   -1.9684   -0.1700    2.1080 N   0  0  0  0  0  0  0  0  0  0  0  0
   -2.9450    0.7107    1.4624 C   0  0  1  0  0  0  0  0  0  0  0  0
   -2.9998    1.6534    2.0069 H   0  0  0  0  0  0  0  0  0  0  0  0
   -2.5137    0.9795    0.0193 C   0  0  0  0  0  0  0  0  0  0  0  0
   -1.2190    1.7506    0.0173 C   0  0  0  0  0  0  0  0  0  0  0  0
   -0.0126    1.0758    0.0080 C   0  0  0  0  0  0  0  0  0  0  0  0
    1.1750    1.7832    0.0004 C   0  0  0  0  0  0  0  0  0  0  0  0
    1.1563    3.1654    0.0076 C   0  0  0  0  0  0  0  0  0  0  0  0
   -0.0501    3.8402    0.0223 C   0  0  0  0  0  0  0  0  0  0  0  0
   -1.2377    3.1328    0.0299 C   0  0  0  0  0  0  0  0  0  0  0  0
   -4.2988    0.0485    1.4671 C   0  0  0  0  0  0  0  0  0  0  0  0
   -4.4339   -1.0467    1.9592 O   0  0  0  0  0  0  0  0  0  0  0  0
   -1.2040    1.2296    5.5563 H   0  0  0  0  0  0  0  0  0  0  0  0
   -0.3733    0.5818    6.9911 H   0  0  0  0  0  0  0  0  0  0  0  0
    0.5172    0.7855    5.4634 H   0  0  0  0  0  0  0  0  0  0  0  0
   -2.4633   -2.2642    5.8120 H   0  0  0  0  0  0  0  0  0  0  0  0
   -2.1139   -1.1991    7.1946 H   0  0  0  0  0  0  0  0  0  0  0  0
   -2.9445   -0.5513    5.7598 H   0  0  0  0  0  0  0  0  0  0  0  0
    0.7424   -0.6761    7.6685 H   0  0  0  0  0  0  0  0  0  0  0  0
    2.8923   -4.3396    7.2028 H   0  0  0  0  0  0  0  0  0  0  0  0
   -0.1016   -3.2322    4.3621 H   0  0  0  0  0  0  0  0  0  0  0  0
    2.7598   -6.8024    4.8686 H   0  0  0  0  0  0  0  0  0  0  0  0
    3.6232   -5.4057    5.5557 H   0  0  0  0  0  0  0  0  0  0  0  0
    2.3930   -6.2548    6.5220 H   0  0  0  0  0  0  0  0  0  0  0  0
    4.0630   -2.8360   10.0136 H   0  0  0  0  0  0  0  0  0  0  0  0
    3.0908   -4.1319    9.2761 H   0  0  0  0  0  0  0  0  0  0  0  0
    4.3207   -3.2822    8.3098 H   0  0  0  0  0  0  0  0  0  0  0  0
   -1.4224   -0.7651    1.5708 H   0  0  0  0  0  0  0  0  0  0  0  0
   -3.2837    1.5610   -0.4877 H   0  0  0  0  0  0  0  0  0  0  0  0
   -2.3729    0.0317   -0.5003 H   0  0  0  0  0  0  0  0  0  0  0  0
    0.0021   -0.0041    0.0020 H   0  0  0  0  0  0  0  0  0  0  0  0
    2.1175    1.2560   -0.0115 H   0  0  0  0  0  0  0  0  0  0  0  0
    2.0841    3.7181    0.0014 H   0  0  0  0  0  0  0  0  0  0  0  0
   -0.0647    4.9201    0.0276 H   0  0  0  0  0  0  0  0  0  0  0  0
   -2.1802    3.6600    0.0410 H   0  0  0  0  0  0  0  0  0  0  0  0
   -5.3544    0.6754    0.9246 O   0  5  0  0  0  0  0  0  0  0  0  0
  1  2  1  0  0  0  0
  1 29  1  0  0  0  0
  1 30  1  0  0  0  0
  1 31  1  0  0  0  0
  2  3  1  0  0  0  0
  2  4  1  0  0  0  0
  2 14  1  0  0  0  0
  3 32  1  0  0  0  0
  3 33  1  0  0  0  0
  3 34  1  0  0  0  0
  4  9  2  0  0  0  0
  4  5  1  0  0  0  0
  5  6  2  0  0  0  0
  5 35  1  0  0  0  0
  6  7  1  0  0  0  0
  6 12  1  0  0  0  0
  7  8  2  0  0  0  0
  7 36  1  0  0  0  0
  8  9  1  0  0  0  0
  8 10  1  0  0  0  0
  9 37  1  0  0  0  0
 10 11  1  0  0  0  0
 11 38  1  0  0  0  0
 11 39  1  0  0  0  0
 11 40  1  0  0  0  0
 12 13  1  0  0  0  0
 13 41  1  0  0  0  0
 13 42  1  0  0  0  0
 13 43  1  0  0  0  0
 14 15  1  0  0  0  0
 15 16  2  0  0  0  0
 15 17  1  0  0  0  0
 17 18  1  0  0  0  0
 17 44  1  0  0  0  0
 18 19  1  0  0  0  0
 18 20  1  0  0  0  0
 18 27  1  0  0  0  0
 20 21  1  0  0  0  0
 20 45  1  0  0  0  0
 20 46  1  0  0  0  0
 21 26  2  0  0  0  0
 21 22  1  0  0  0  0
 22 23  2  0  0  0  0
 22 47  1  0  0  0  0
 23 24  1  0  0  0  0
 23 48  1  0  0  0  0
 24 25  2  0  0  0  0
 24 49  1  0  0  0  0
 25 26  1  0  0  0  0
 25 50  1  0  0  0  0
 26 51  1  0  0  0  0
 27 28  2  0  0  0  0
 27 52  1  0  0  0  0
M  CHG  1  52  -1
M  END
$$$$
ZINC02563545
  -OEChem-08230709463D

 62 65  0     1  0  0  0  0  0999 V2000
   -3.5622    3.1426   -4.1248 C   0  0  0  0  0  0  0  0  0  0  0  0
   -2.6233    2.7782   -2.9730 C   0  0  1  0  0  0  0  0  0  0  0  0
   -2.6335    3.5754   -2.2298 H   0  0  0  0  0  0  0  0  0  0  0  0
   -3.0913    1.4726   -2.3270 C   0  0  2  0  0  0  0  0  0  0  0  0
   -3.1209    0.6733   -3.0675 H   0  0  0  0  0  0  0  0  0  0  0  0
   -4.4889    1.6637   -1.6817 C   0  0  0  0  0  0  0  0  0  0  0  0
   -4.2974    1.4649   -0.1534 C   0  0  0  0  0  0  0  0  0  0  0  0
   -2.8135    1.7893    0.0520 C   0  0  2  0  0  0  0  0  0  0  0  0
   -2.6507    2.8661    0.0079 H   0  0  0  0  0  0  0  0  0  0  0  0
   -2.1670    1.0919   -1.1751 C   0  0  2  0  0  0  0  0  0  0  0  0
   -0.7350    1.5828   -1.2658 C   0  0  0  0  0  0  0  0  0  0  0  0
   -0.0029    1.0834   -0.0100 C   0  0  0  0  0  0  0  0  0  0  0  0
   -0.6845    1.5654    1.2671 C   0  0  1  0  0  0  0  0  0  0  0  0
   -0.5828    2.6481    1.3414 H   0  0  0  0  0  0  0  0  0  0  0  0
   -2.1613    1.2074    1.2926 C   0  0  1  0  0  0  0  0  0  0  0  0
   -2.2604    0.1219    1.2858 H   0  0  0  0  0  0  0  0  0  0  0  0
   -2.8101    1.7968    2.5470 C   0  0  0  0  0  0  0  0  0  0  0  0
   -2.2137    1.1398    3.7903 C   0  0  0  0  0  0  0  0  0  0  0  0
   -0.7079    1.3287    3.7312 C   0  0  0  0  0  0  0  0  0  0  0  0
   -0.0967    1.8397    4.7853 C   0  0  0  0  0  0  0  0  0  0  0  0
    1.3585    2.0550    4.7764 C   0  0  0  0  0  0  0  0  0  0  0  0
    2.0695    1.7517    3.6984 C   0  0  0  0  0  0  0  0  0  0  0  0
    1.4861    1.1866    2.4516 C   0  0  0  0  0  0  0  0  0  0  0  0
    0.0045    0.9297    2.4792 C   0  0  2  0  0  0  0  0  0  0  0  0
   -0.1840   -0.5827    2.3440 C   0  0  0  0  0  0  0  0  0  0  0  0
    1.9924    2.5790    5.9048 N   0  0  0  0  0  0  0  0  0  0  0  0
    3.3932    2.7863    5.8977 O   0  0  0  0  0  0  0  0  0  0  0  0
    3.9069    3.3268    7.1167 C   0  0  0  0  0  0  0  0  0  0  0  0
    5.3986    3.5051    6.9978 C   0  0  0  0  0  0  0  0  0  0  0  0
    5.9638    3.2006    5.9742 O   0  0  0  0  0  0  0  0  0  0  0  0
   -2.1830   -0.4252   -0.9773 C   0  0  0  0  0  0  0  0  0  0  0  0
   -1.2957    2.6120   -3.4751 O   0  0  0  0  0  0  0  0  0  0  0  0
   -3.5520    2.3453   -4.8680 H   0  0  0  0  0  0  0  0  0  0  0  0
   -4.5748    3.2693   -3.7418 H   0  0  0  0  0  0  0  0  0  0  0  0
   -3.2288    4.0727   -4.5850 H   0  0  0  0  0  0  0  0  0  0  0  0
   -5.1836    0.9198   -2.0716 H   0  0  0  0  0  0  0  0  0  0  0  0
   -4.8633    2.6672   -1.8844 H   0  0  0  0  0  0  0  0  0  0  0  0
   -4.5098    0.4343    0.1310 H   0  0  0  0  0  0  0  0  0  0  0  0
   -4.9247    2.1559    0.4097 H   0  0  0  0  0  0  0  0  0  0  0  0
   -0.7174    2.6723   -1.2971 H   0  0  0  0  0  0  0  0  0  0  0  0
   -0.2585    1.1783   -2.1588 H   0  0  0  0  0  0  0  0  0  0  0  0
    0.0106   -0.0065   -0.0162 H   0  0  0  0  0  0  0  0  0  0  0  0
    1.0229    1.4516   -0.0263 H   0  0  0  0  0  0  0  0  0  0  0  0
   -2.6504    2.8748    2.5662 H   0  0  0  0  0  0  0  0  0  0  0  0
   -3.8799    1.5884    2.5346 H   0  0  0  0  0  0  0  0  0  0  0  0
   -2.4503    0.0759    3.8087 H   0  0  0  0  0  0  0  0  0  0  0  0
   -2.6095    1.6198    4.6853 H   0  0  0  0  0  0  0  0  0  0  0  0
   -0.6709    2.1019    5.6616 H   0  0  0  0  0  0  0  0  0  0  0  0
    3.1352    1.9248    3.7274 H   0  0  0  0  0  0  0  0  0  0  0  0
    1.9911    0.2451    2.2355 H   0  0  0  0  0  0  0  0  0  0  0  0
    1.6971    1.8758    1.6340 H   0  0  0  0  0  0  0  0  0  0  0  0
    0.2714   -0.9239    1.4143 H   0  0  0  0  0  0  0  0  0  0  0  0
    0.2909   -1.0848    3.1869 H   0  0  0  0  0  0  0  0  0  0  0  0
   -1.2485   -0.8167    2.3345 H   0  0  0  0  0  0  0  0  0  0  0  0
    1.4733    2.8011    6.6935 H   0  0  0  0  0  0  0  0  0  0  0  0
    3.4399    4.2922    7.3114 H   0  0  0  0  0  0  0  0  0  0  0  0
    3.6869    2.6446    7.9379 H   0  0  0  0  0  0  0  0  0  0  0  0
   -1.5889   -0.6837   -0.1007 H   0  0  0  0  0  0  0  0  0  0  0  0
   -3.2096   -0.7619   -0.8326 H   0  0  0  0  0  0  0  0  0  0  0  0
   -1.7620   -0.9109   -1.8576 H   0  0  0  0  0  0  0  0  0  0  0  0
   -0.9339    3.4021   -3.8992 H   0  0  0  0  0  0  0  0  0  0  0  0
    6.0994    4.0023    8.0291 O   0  5  0  0  0  0  0  0  0  0  0  0
  1  2  1  0  0  0  0
  1 33  1  0  0  0  0
  1 34  1  0  0  0  0
  1 35  1  0  0  0  0
  2  3  1  0  0  0  0
  2  4  1  0  0  0  0
  2 32  1  0  0  0  0
  4  5  1  0  0  0  0
  4 10  1  0  0  0  0
  4  6  1  0  0  0  0
  6  7  1  0  0  0  0
  6 36  1  0  0  0  0
  6 37  1  0  0  0  0
  7  8  1  0  0  0  0
  7 38  1  0  0  0  0
  7 39  1  0  0  0  0
  8  9  1  0  0  0  0
  8 15  1  0  0  0  0
  8 10  1  0  0  0  0
 10 11  1  0  0  0  0
 10 31  1  0  0  0  0
 11 12  1  0  0  0  0
 11 40  1  0  0  0  0
 11 41  1  0  0  0  0
 12 13  1  0  0  0  0
 12 42  1  0  0  0  0
 12 43  1  0  0  0  0
 13 14  1  0  0  0  0
 13 24  1  0  0  0  0
 13 15  1  0  0  0  0
 15 16  1  0  0  0  0
 15 17  1  0  0  0  0
 17 18  1  0  0  0  0
 17 44  1  0  0  0  0
 17 45  1  0  0  0  0
 18 19  1  0  0  0  0
 18 46  1  0  0  0  0
 18 47  1  0  0  0  0
 19 24  1  0  0  0  0
 19 20  2  0  0  0  0
 20 21  1  0  0  0  0
 20 48  1  0  0  0  0
 21 22  2  0  0  0  0
 21 26  1  0  0  0  0
 22 23  1  0  0  0  0
 22 49  1  0  0  0  0
 23 24  1  0  0  0  0
 23 50  1  0  0  0  0
 23 51  1  0  0  0  0
 24 25  1  0  0  0  0
 25 52  1  0  0  0  0
 25 53  1  0  0  0  0
 25 54  1  0  0  0  0
 26 27  1  0  0  0  0
 26 55  1  0  0  0  0
 27 28  1  0  0  0  0
 28 29  1  0  0  0  0
 28 56  1  0  0  0  0
 28 57  1  0  0  0  0
 29 30  2  0  0  0  0
 29 62  1  0  0  0  0
 31 58  1  0  0  0  0
 31 59  1  0  0  0  0
 31 60  1  0  0  0  0
 32 61  1  0  0  0  0
M  CHG  1  62  -1
M  END
$$$$
ZINC02564682
  -OEChem-08230709463D

 62 65  0     1  0  0  0  0  0999 V2000
    4.5130    0.5267    4.8400 C   0  0  0  0  0  0  0  0  0  0  0  0
    3.4308    0.0075    5.7512 C   0  0  0  0  0  0  0  0  0  0  0  0
    2.1780   -0.0238    5.3369 C   0  0  0  0  0  0  0  0  0  0  0  0
    0.9705   -0.5548    6.1028 C   0  0  0  0  0  0  0  0  0  0  0  0
   -0.2548   -0.4801    5.1346 C   0  0  0  0  0  0  0  0  0  0  0  0
    0.4253   -0.4608    3.7597 C   0  0  2  0  0  0  0  0  0  0  0  0
    0.7484   -1.4633    3.4791 H   0  0  0  0  0  0  0  0  0  0  0  0
    1.6508    0.4565    4.0170 C   0  0  2  0  0  0  0  0  0  0  0  0
    2.5742    0.3147    2.8226 C   0  0  0  0  0  0  0  0  0  0  0  0
    1.8220    0.8792    1.6028 C   0  0  0  0  0  0  0  0  0  0  0  0
    0.4935    0.1627    1.3768 C   0  0  1  0  0  0  0  0  0  0  0  0
    0.7114   -0.8730    1.1161 H   0  0  0  0  0  0  0  0  0  0  0  0
   -0.3807    0.1708    2.6383 C   0  0  1  0  0  0  0  0  0  0  0  0
   -0.6695    1.1911    2.8908 H   0  0  0  0  0  0  0  0  0  0  0  0
   -1.6256   -0.6801    2.3632 C   0  0  0  0  0  0  0  0  0  0  0  0
   -2.3272   -0.1498    1.1471 C   0  0  0  0  0  0  0  0  0  0  0  0
   -1.7104    0.4864    0.1928 C   0  0  0  0  0  0  0  0  0  0  0  0
   -0.2447    0.8040    0.2135 C   0  0  2  0  0  0  0  0  0  0  0  0
    0.3778    0.3573   -1.1124 C   0  0  0  0  0  0  0  0  0  0  0  0
   -0.3693    0.9804   -2.2758 C   0  0  0  0  0  0  0  0  0  0  0  0
   -1.8139    0.4770   -2.2790 C   0  0  2  0  0  0  0  0  0  0  0  0
   -2.3344    0.8713   -3.1518 H   0  0  0  0  0  0  0  0  0  0  0  0
   -2.5212    0.9502   -1.0057 C   0  0  0  0  0  0  0  0  0  0  0  0
   -1.8206   -0.9512   -2.3251 O   0  0  0  0  0  0  0  0  0  0  0  0
   -0.0867    2.3216    0.3261 C   0  0  0  0  0  0  0  0  0  0  0  0
    1.1898    1.9099    4.1433 C   0  0  0  0  0  0  0  0  0  0  0  0
    3.7518   -0.4381    7.0271 N   0  0  0  0  0  0  0  0  0  0  0  0
    2.7349   -0.9260    7.8833 O   0  0  0  0  0  0  0  0  0  0  0  0
    3.2071   -1.3502    9.1636 C   0  0  0  0  0  0  0  0  0  0  0  0
    2.0472   -1.8474    9.9874 C   0  0  0  0  0  0  0  0  0  0  0  0
    0.9308   -1.8393    9.5254 O   0  0  0  0  0  0  0  0  0  0  0  0
    4.2590    1.5346    4.5118 H   0  0  0  0  0  0  0  0  0  0  0  0
    5.4612    0.5476    5.3771 H   0  0  0  0  0  0  0  0  0  0  0  0
    4.6015   -0.1266    3.9719 H   0  0  0  0  0  0  0  0  0  0  0  0
    1.1373   -1.5932    6.3894 H   0  0  0  0  0  0  0  0  0  0  0  0
    0.7942    0.0533    6.9900 H   0  0  0  0  0  0  0  0  0  0  0  0
   -0.8174    0.4384    5.3011 H   0  0  0  0  0  0  0  0  0  0  0  0
   -0.8988   -1.3537    5.2356 H   0  0  0  0  0  0  0  0  0  0  0  0
    3.4885    0.8840    2.9905 H   0  0  0  0  0  0  0  0  0  0  0  0
    2.8144   -0.7362    2.6616 H   0  0  0  0  0  0  0  0  0  0  0  0
    2.4449    0.7607    0.7162 H   0  0  0  0  0  0  0  0  0  0  0  0
    1.6307    1.9405    1.7616 H   0  0  0  0  0  0  0  0  0  0  0  0
   -1.3288   -1.7145    2.1903 H   0  0  0  0  0  0  0  0  0  0  0  0
   -2.2962   -0.6323    3.2212 H   0  0  0  0  0  0  0  0  0  0  0  0
   -3.3903   -0.3151    1.0524 H   0  0  0  0  0  0  0  0  0  0  0  0
    1.4180    0.6806   -1.1528 H   0  0  0  0  0  0  0  0  0  0  0  0
    0.3315   -0.7291   -1.1880 H   0  0  0  0  0  0  0  0  0  0  0  0
    0.1138    0.7022   -3.2125 H   0  0  0  0  0  0  0  0  0  0  0  0
   -0.3637    2.0656   -2.1732 H   0  0  0  0  0  0  0  0  0  0  0  0
   -3.5220    0.5208   -0.9604 H   0  0  0  0  0  0  0  0  0  0  0  0
   -2.5876    2.0382   -1.0053 H   0  0  0  0  0  0  0  0  0  0  0  0
   -2.7059   -1.3404   -2.3291 H   0  0  0  0  0  0  0  0  0  0  0  0
    0.9713    2.5807    0.2870 H   0  0  0  0  0  0  0  0  0  0  0  0
   -0.6096    2.8036   -0.5001 H   0  0  0  0  0  0  0  0  0  0  0  0
   -0.5094    2.6618    1.2714 H   0  0  0  0  0  0  0  0  0  0  0  0
    0.4913    1.9986    4.9753 H   0  0  0  0  0  0  0  0  0  0  0  0
    2.0531    2.5505    4.3238 H   0  0  0  0  0  0  0  0  0  0  0  0
    0.6968    2.2162    3.2207 H   0  0  0  0  0  0  0  0  0  0  0  0
    4.6725   -0.4151    7.3316 H   0  0  0  0  0  0  0  0  0  0  0  0
    3.9325   -2.1536    9.0355 H   0  0  0  0  0  0  0  0  0  0  0  0
    3.6808   -0.5107    9.6726 H   0  0  0  0  0  0  0  0  0  0  0  0
    2.2544   -2.2992   11.2342 O   0  5  0  0  0  0  0  0  0  0  0  0
  1  2  1  0  0  0  0
  1 32  1  0  0  0  0
  1 33  1  0  0  0  0
  1 34  1  0  0  0  0
  2  3  2  0  0  0  0
  2 27  1  0  0  0  0
  3  8  1  0  0  0  0
  3  4  1  0  0  0  0
  4  5  1  0  0  0  0
  4 35  1  0  0  0  0
  4 36  1  0  0  0  0
  5  6  1  0  0  0  0
  5 37  1  0  0  0  0
  5 38  1  0  0  0  0
  6  7  1  0  0  0  0
  6 13  1  0  0  0  0
  6  8  1  0  0  0  0
  8  9  1  0  0  0  0
  8 26  1  0  0  0  0
  9 10  1  0  0  0  0
  9 39  1  0  0  0  0
  9 40  1  0  0  0  0
 10 11  1  0  0  0  0
 10 41  1  0  0  0  0
 10 42  1  0  0  0  0
 11 12  1  0  0  0  0
 11 18  1  0  0  0  0
 11 13  1  0  0  0  0
 13 14  1  0  0  0  0
 13 15  1  0  0  0  0
 15 16  1  0  0  0  0
 15 43  1  0  0  0  0
 15 44  1  0  0  0  0
 16 17  2  0  0  0  0
 16 45  1  0  0  0  0
 17 23  1  0  0  0  0
 17 18  1  0  0  0  0
 18 19  1  0  0  0  0
 18 25  1  0  0  0  0
 19 20  1  0  0  0  0
 19 46  1  0  0  0  0
 19 47  1  0  0  0  0
 20 21  1  0  0  0  0
 20 48  1  0  0  0  0
 20 49  1  0  0  0  0
 21 22  1  0  0  0  0
 21 23  1  0  0  0  0
 21 24  1  0  0  0  0
 23 50  1  0  0  0  0
 23 51  1  0  0  0  0
 24 52  1  0  0  0  0
 25 53  1  0  0  0  0
 25 54  1  0  0  0  0
 25 55  1  0  0  0  0
 26 56  1  0  0  0  0
 26 57  1  0  0  0  0
 26 58  1  0  0  0  0
 27 28  1  0  0  0  0
 27 59  1  0  0  0  0
 28 29  1  0  0  0  0
 29 30  1  0  0  0  0
 29 60  1  0  0  0  0
 29 61  1  0  0  0  0
 30 31  2  0  0  0  0
 30 62  1  0  0  0  0
M  CHG  1  62  -1
M  END
$$$$
ZINC02564738
  -OEChem-08230709463D

 55 55  0     1  0  0  0  0  0999 V2000
   -9.4001   -0.3807    3.7919 C   0  0  0  0  0  0  0  0  0  0  0  0
   -9.3926   -1.2609    2.5405 C   0  0  0  0  0  0  0  0  0  0  0  0
   -9.5380   -0.3810    1.2972 C   0  0  2  0  0  0  0  0  0  0  0  0
   -8.7580    0.3803    1.2977 H   0  0  0  0  0  0  0  0  0  0  0  0
  -10.9105    0.2949    1.3085 C   0  0  0  0  0  0  0  0  0  0  0  0
   -9.4057   -1.2459    0.0421 C   0  0  1  0  0  0  0  0  0  0  0  0
   -9.5093   -0.6191   -0.8436 H   0  0  0  0  0  0  0  0  0  0  0  0
   -8.0538   -1.9117    0.0310 C   0  0  0  0  0  0  0  0  0  0  0  0
   -7.9741   -3.1173    0.0234 O   0  0  0  0  0  0  0  0  0  0  0  0
   -6.9381   -1.1654    0.0296 O   0  0  0  0  0  0  0  0  0  0  0  0
   -5.6709   -1.8741    0.0188 C   0  0  0  0  0  0  0  0  0  0  0  0
   -4.5389   -0.8793    0.0188 C   0  0  0  0  0  0  0  0  0  0  0  0
   -4.0134   -0.4303    1.2159 C   0  0  0  0  0  0  0  0  0  0  0  0
   -2.9751    0.4822    1.2160 C   0  0  0  0  0  0  0  0  0  0  0  0
   -2.4615    0.9450    0.0189 C   0  0  0  0  0  0  0  0  0  0  0  0
   -2.9902    0.4995   -1.1782 C   0  0  0  0  0  0  0  0  0  0  0  0
   -4.0257   -0.4163   -1.1783 C   0  0  0  0  0  0  0  0  0  0  0  0
   -1.3295    1.9397    0.0189 C   0  0  0  0  0  0  0  0  0  0  0  0
   -0.0143    1.2041    0.0087 C   0  0  0  0  0  0  0  0  0  0  0  0
    0.0021   -0.0041    0.0020 O   0  0  0  0  0  0  0  0  0  0  0  0
  -10.4540   -2.2692    0.0414 N   0  0  0  0  0  0  0  0  0  0  0  0
  -11.6777   -1.9800   -0.4437 C   0  0  0  0  0  0  0  0  0  0  0  0
  -11.9115   -0.8705   -0.8806 O   0  0  0  0  0  0  0  0  0  0  0  0
  -12.6412   -2.9205   -0.4443 O   0  0  0  0  0  0  0  0  0  0  0  0
  -13.9348   -2.5387   -0.9820 C   0  0  0  0  0  0  0  0  0  0  0  0
  -13.7744   -2.1135   -2.4430 C   0  0  0  0  0  0  0  0  0  0  0  0
  -14.8928   -3.7287   -0.8994 C   0  0  0  0  0  0  0  0  0  0  0  0
  -14.5001   -1.3715   -0.1703 C   0  0  0  0  0  0  0  0  0  0  0  0
   -9.2965   -1.0075    4.6776 H   0  0  0  0  0  0  0  0  0  0  0  0
   -8.5692    0.3234    3.7459 H   0  0  0  0  0  0  0  0  0  0  0  0
  -10.3398    0.1692    3.8438 H   0  0  0  0  0  0  0  0  0  0  0  0
  -10.2234   -1.9649    2.5865 H   0  0  0  0  0  0  0  0  0  0  0  0
   -8.4529   -1.8107    2.4886 H   0  0  0  0  0  0  0  0  0  0  0  0
  -11.0141    0.9217    0.4228 H   0  0  0  0  0  0  0  0  0  0  0  0
  -11.6905   -0.4665    1.3080 H   0  0  0  0  0  0  0  0  0  0  0  0
  -11.0048    0.9110    2.2027 H   0  0  0  0  0  0  0  0  0  0  0  0
   -5.6093   -2.4946   -0.8753 H   0  0  0  0  0  0  0  0  0  0  0  0
   -5.6000   -2.5053    0.9046 H   0  0  0  0  0  0  0  0  0  0  0  0
   -4.4144   -0.7921    2.1512 H   0  0  0  0  0  0  0  0  0  0  0  0
   -2.5648    0.8334    2.1513 H   0  0  0  0  0  0  0  0  0  0  0  0
   -2.5919    0.8644   -2.1135 H   0  0  0  0  0  0  0  0  0  0  0  0
   -4.4360   -0.7674   -2.1136 H   0  0  0  0  0  0  0  0  0  0  0  0
   -1.3915    2.5607    0.9126 H   0  0  0  0  0  0  0  0  0  0  0  0
   -1.4000    2.5704   -0.8673 H   0  0  0  0  0  0  0  0  0  0  0  0
  -10.2674   -3.1549    0.3902 H   0  0  0  0  0  0  0  0  0  0  0  0
  -13.3716   -2.9450   -3.0213 H   0  0  0  0  0  0  0  0  0  0  0  0
  -14.7455   -1.8269   -2.8466 H   0  0  0  0  0  0  0  0  0  0  0  0
  -13.0919   -1.2657   -2.5018 H   0  0  0  0  0  0  0  0  0  0  0  0
  -15.0070   -4.0317    0.1414 H   0  0  0  0  0  0  0  0  0  0  0  0
  -15.8639   -3.4421   -1.3031 H   0  0  0  0  0  0  0  0  0  0  0  0
  -14.4900   -4.5603   -1.4777 H   0  0  0  0  0  0  0  0  0  0  0  0
  -13.8176   -0.5237   -0.2291 H   0  0  0  0  0  0  0  0  0  0  0  0
  -15.4712   -1.0849   -0.5739 H   0  0  0  0  0  0  0  0  0  0  0  0
  -14.6143   -1.6744    0.8705 H   0  0  0  0  0  0  0  0  0  0  0  0
    1.1389    1.8910    0.0013 O   0  5  0  0  0  0  0  0  0  0  0  0
  1  2  1  0  0  0  0
  1 29  1  0  0  0  0
  1 30  1  0  0  0  0
  1 31  1  0  0  0  0
  2  3  1  0  0  0  0
  2 32  1  0  0  0  0
  2 33  1  0  0  0  0
  3  4  1  0  0  0  0
  3  5  1  0  0  0  0
  3  6  1  0  0  0  0
  5 34  1  0  0  0  0
  5 35  1  0  0  0  0
  5 36  1  0  0  0  0
  6  7  1  0  0  0  0
  6  8  1  0  0  0  0
  6 21  1  0  0  0  0
  8  9  2  0  0  0  0
  8 10  1  0  0  0  0
 10 11  1  0  0  0  0
 11 12  1  0  0  0  0
 11 37  1  0  0  0  0
 11 38  1  0  0  0  0
 12 17  2  0  0  0  0
 12 13  1  0  0  0  0
 13 14  2  0  0  0  0
 13 39  1  0  0  0  0
 14 15  1  0  0  0  0
 14 40  1  0  0  0  0
 15 16  2  0  0  0  0
 15 18  1  0  0  0  0
 16 17  1  0  0  0  0
 16 41  1  0  0  0  0
 17 42  1  0  0  0  0
 18 19  1  0  0  0  0
 18 43  1  0  0  0  0
 18 44  1  0  0  0  0
 19 20  2  0  0  0  0
 19 55  1  0  0  0  0
 21 22  1  0  0  0  0
 21 45  1  0  0  0  0
 22 23  2  0  0  0  0
 22 24  1  0  0  0  0
 24 25  1  0  0  0  0
 25 26  1  0  0  0  0
 25 27  1  0  0  0  0
 25 28  1  0  0  0  0
 26 46  1  0  0  0  0
 26 47  1  0  0  0  0
 26 48  1  0  0  0  0
 27 49  1  0  0  0  0
 27 50  1  0  0  0  0
 27 51  1  0  0  0  0
 28 52  1  0  0  0  0
 28 53  1  0  0  0  0
 28 54  1  0  0  0  0
M  CHG  1  55  -1
M  END
$$$$
ZINC02567742
  -OEChem-08230709463D

 54 54  0     1  0  0  0  0  0999 V2000
   -3.1407   -1.6548   -3.1137 C   0  0  0  0  0  0  0  0  0  0  0  0
   -4.3128   -0.9438   -2.4343 C   0  0  0  0  0  0  0  0  0  0  0  0
   -5.4628   -1.9330   -2.2345 C   0  0  0  0  0  0  0  0  0  0  0  0
   -4.7847    0.2161   -3.3135 C   0  0  0  0  0  0  0  0  0  0  0  0
   -3.8859   -0.4309   -1.1446 O   0  0  0  0  0  0  0  0  0  0  0  0
   -2.8746    0.4578   -1.1446 C   0  0  0  0  0  0  0  0  0  0  0  0
   -2.3626    0.7956   -2.1935 O   0  0  0  0  0  0  0  0  0  0  0  0
   -2.4300    0.9727    0.0189 N   0  0  0  0  0  0  0  0  0  0  0  0
   -1.3295    1.9397    0.0189 C   0  0  2  0  0  0  0  0  0  0  0  0
   -1.4000    2.5704   -0.8673 H   0  0  0  0  0  0  0  0  0  0  0  0
   -0.0143    1.2041    0.0087 C   0  0  0  0  0  0  0  0  0  0  0  0
    0.0021   -0.0041    0.0020 O   0  0  0  0  0  0  0  0  0  0  0  0
   -1.4165    2.8114    1.2733 C   0  0  0  0  0  0  0  0  0  0  0  0
   -2.7518    3.5583    1.2837 C   0  0  0  0  0  0  0  0  0  0  0  0
   -1.3176    1.9262    2.5173 C   0  0  0  0  0  0  0  0  0  0  0  0
   -0.2672    3.8213    1.2734 C   0  0  0  0  0  0  0  0  0  0  0  0
   -0.3704    4.8547    2.7606 S   0  0  0  0  0  0  0  0  0  0  0  0
    1.0424    5.9825    2.6103 C   0  0  0  0  0  0  0  0  0  0  0  0
    1.0744    6.9088    3.7986 C   0  0  0  0  0  0  0  0  0  0  0  0
    0.4060    8.1182    3.7491 C   0  0  0  0  0  0  0  0  0  0  0  0
    0.4292    8.9665    4.8392 C   0  0  0  0  0  0  0  0  0  0  0  0
    1.1332    8.6092    5.9799 C   0  0  0  0  0  0  0  0  0  0  0  0
    1.8077    7.3977    6.0249 C   0  0  0  0  0  0  0  0  0  0  0  0
    1.7768    6.5504    4.9343 C   0  0  0  0  0  0  0  0  0  0  0  0
    1.1617    9.4443    7.0517 O   0  0  0  0  0  0  0  0  0  0  0  0
    0.4446   10.6748    6.9346 C   0  0  0  0  0  0  0  0  0  0  0  0
   -2.8046   -2.4810   -2.4873 H   0  0  0  0  0  0  0  0  0  0  0  0
   -3.4612   -2.0397   -4.0818 H   0  0  0  0  0  0  0  0  0  0  0  0
   -2.3214   -0.9500   -3.2560 H   0  0  0  0  0  0  0  0  0  0  0  0
   -6.2978   -1.4264   -1.7504 H   0  0  0  0  0  0  0  0  0  0  0  0
   -5.7832   -2.3179   -3.2026 H   0  0  0  0  0  0  0  0  0  0  0  0
   -5.1266   -2.7592   -1.6081 H   0  0  0  0  0  0  0  0  0  0  0  0
   -3.9654    0.9208   -3.4558 H   0  0  0  0  0  0  0  0  0  0  0  0
   -5.1051   -0.1689   -4.2816 H   0  0  0  0  0  0  0  0  0  0  0  0
   -5.6197    0.7226   -2.8295 H   0  0  0  0  0  0  0  0  0  0  0  0
   -2.8387    0.7030    0.8562 H   0  0  0  0  0  0  0  0  0  0  0  0
   -3.5706    2.8388    1.2837 H   0  0  0  0  0  0  0  0  0  0  0  0
   -2.8138    4.1793    2.1774 H   0  0  0  0  0  0  0  0  0  0  0  0
   -2.8223    4.1889    0.3975 H   0  0  0  0  0  0  0  0  0  0  0  0
   -0.3664    1.3940    2.5099 H   0  0  0  0  0  0  0  0  0  0  0  0
   -1.3797    2.5471    3.4110 H   0  0  0  0  0  0  0  0  0  0  0  0
   -2.1364    1.2067    2.5173 H   0  0  0  0  0  0  0  0  0  0  0  0
    0.6840    3.2892    1.2660 H   0  0  0  0  0  0  0  0  0  0  0  0
   -0.3377    4.4520    0.3871 H   0  0  0  0  0  0  0  0  0  0  0  0
    1.9661    5.4050    2.5748 H   0  0  0  0  0  0  0  0  0  0  0  0
    0.9444    6.5678    1.6959 H   0  0  0  0  0  0  0  0  0  0  0  0
   -0.1383    8.3979    2.8592 H   0  0  0  0  0  0  0  0  0  0  0  0
   -0.0967    9.9091    4.8017 H   0  0  0  0  0  0  0  0  0  0  0  0
    2.3568    7.1175    6.9117 H   0  0  0  0  0  0  0  0  0  0  0  0
    2.3014    5.6070    4.9690 H   0  0  0  0  0  0  0  0  0  0  0  0
    0.8475   11.2523    6.1025 H   0  0  0  0  0  0  0  0  0  0  0  0
   -0.6098   10.4652    6.7546 H   0  0  0  0  0  0  0  0  0  0  0  0
    0.5493   11.2456    7.8573 H   0  0  0  0  0  0  0  0  0  0  0  0
    1.1389    1.8910    0.0013 O   0  5  0  0  0  0  0  0  0  0  0  0
  1  2  1  0  0  0  0
  1 27  1  0  0  0  0
  1 28  1  0  0  0  0
  1 29  1  0  0  0  0
  2  3  1  0  0  0  0
  2  4  1  0  0  0  0
  2  5  1  0  0  0  0
  3 30  1  0  0  0  0
  3 31  1  0  0  0  0
  3 32  1  0  0  0  0
  4 33  1  0  0  0  0
  4 34  1  0  0  0  0
  4 35  1  0  0  0  0
  5  6  1  0  0  0  0
  6  7  2  0  0  0  0
  6  8  1  0  0  0  0
  8  9  1  0  0  0  0
  8 36  1  0  0  0  0
  9 10  1  0  0  0  0
  9 11  1  0  0  0  0
  9 13  1  0  0  0  0
 11 12  2  0  0  0  0
 11 54  1  0  0  0  0
 13 14  1  0  0  0  0
 13 15  1  0  0  0  0
 13 16  1  0  0  0  0
 14 37  1  0  0  0  0
 14 38  1  0  0  0  0
 14 39  1  0  0  0  0
 15 40  1  0  0  0  0
 15 41  1  0  0  0  0
 15 42  1  0  0  0  0
 16 17  1  0  0  0  0
 16 43  1  0  0  0  0
 16 44  1  0  0  0  0
 17 18  1  0  0  0  0
 18 19  1  0  0  0  0
 18 45  1  0  0  0  0
 18 46  1  0  0  0  0
 19 24  2  0  0  0  0
 19 20  1  0  0  0  0
 20 21  2  0  0  0  0
 20 47  1  0  0  0  0
 21 22  1  0  0  0  0
 21 48  1  0  0  0  0
 22 23  2  0  0  0  0
 22 25  1  0  0  0  0
 23 24  1  0  0  0  0
 23 49  1  0  0  0  0
 24 50  1  0  0  0  0
 25 26  1  0  0  0  0
 26 51  1  0  0  0  0
 26 52  1  0  0  0  0
 26 53  1  0  0  0  0
M  CHG  1  54  -1
M  END
$$$$
ZINC02570982
  -OEChem-08230709463D

 52 54  0     1  0  0  0  0  0999 V2000
    1.5602    4.6239    5.5114 C   0  0  0  0  0  0  0  0  0  0  0  0
    0.6373    3.9310    4.5423 C   0  0  0  0  0  0  0  0  0  0  0  0
   -0.5168    3.3238    5.0028 C   0  0  0  0  0  0  0  0  0  0  0  0
   -1.3650    2.6884    4.1176 C   0  0  0  0  0  0  0  0  0  0  0  0
   -1.0576    2.6592    2.7626 C   0  0  0  0  0  0  0  0  0  0  0  0
    0.1061    3.2652    2.3044 C   0  0  0  0  0  0  0  0  0  0  0  0
    0.9467    3.9036    3.1946 C   0  0  0  0  0  0  0  0  0  0  0  0
   -2.1370    1.8497    1.6294 S   0  0  0  0  0  0  0  0  0  0  0  0
   -1.3313    2.0738    0.0196 C   0  0  2  0  0  0  0  0  0  0  0  0
   -1.1552    3.1353   -0.1539 H   0  0  0  0  0  0  0  0  0  0  0  0
   -2.2343    1.5195   -1.0841 C   0  0  0  0  0  0  0  0  0  0  0  0
   -3.4997    2.3349   -1.1547 C   0  0  0  0  0  0  0  0  0  0  0  0
   -3.6631    3.2673   -0.3969 O   0  0  0  0  0  0  0  0  0  0  0  0
   -4.5370    1.9996   -2.1433 C   0  0  0  0  0  0  0  0  0  0  0  0
   -4.3497    0.9285   -3.0228 C   0  0  0  0  0  0  0  0  0  0  0  0
   -5.3287    0.6173   -3.9427 C   0  0  0  0  0  0  0  0  0  0  0  0
   -6.4894    1.3686   -4.0043 C   0  0  0  0  0  0  0  0  0  0  0  0
   -6.6799    2.4333   -3.1408 C   0  0  0  0  0  0  0  0  0  0  0  0
   -5.7127    2.7539   -2.2119 C   0  0  0  0  0  0  0  0  0  0  0  0
   -7.5517    1.0251   -5.0166 C   0  0  0  0  0  0  0  0  0  0  0  0
   -8.0447   -0.4028   -4.7740 C   0  0  0  0  0  0  0  0  0  0  0  0
   -9.1231   -0.7515   -5.8018 C   0  0  0  0  0  0  0  0  0  0  0  0
   -8.5373   -0.6467   -7.2113 C   0  0  0  0  0  0  0  0  0  0  0  0
   -8.0443    0.7812   -7.4538 C   0  0  0  0  0  0  0  0  0  0  0  0
   -6.9659    1.1299   -6.4261 C   0  0  0  0  0  0  0  0  0  0  0  0
   -0.0161    1.3381    0.0094 C   0  0  0  0  0  0  0  0  0  0  0  0
    1.0219    1.9564    0.0028 O   0  0  0  0  0  0  0  0  0  0  0  0
    2.2990    3.9129    5.8812 H   0  0  0  0  0  0  0  0  0  0  0  0
    2.0678    5.4454    5.0058 H   0  0  0  0  0  0  0  0  0  0  0  0
    0.9814    5.0146    6.3483 H   0  0  0  0  0  0  0  0  0  0  0  0
   -0.7550    3.3469    6.0559 H   0  0  0  0  0  0  0  0  0  0  0  0
   -2.2664    2.2150    4.4778 H   0  0  0  0  0  0  0  0  0  0  0  0
    0.3505    3.2406    1.2527 H   0  0  0  0  0  0  0  0  0  0  0  0
    1.8490    4.3786    2.8386 H   0  0  0  0  0  0  0  0  0  0  0  0
   -1.7568    1.5685   -1.9614 H   0  0  0  0  0  0  0  0  0  0  0  0
   -2.4828    0.4815   -0.8632 H   0  0  0  0  0  0  0  0  0  0  0  0
   -3.4425    0.3441   -2.9789 H   0  0  0  0  0  0  0  0  0  0  0  0
   -5.1872   -0.2119   -4.6201 H   0  0  0  0  0  0  0  0  0  0  0  0
   -7.5884    3.0149   -3.1951 H   0  0  0  0  0  0  0  0  0  0  0  0
   -5.8625    3.5855   -1.5392 H   0  0  0  0  0  0  0  0  0  0  0  0
   -8.3861    1.7194   -4.9174 H   0  0  0  0  0  0  0  0  0  0  0  0
   -7.2102   -1.0971   -4.8732 H   0  0  0  0  0  0  0  0  0  0  0  0
   -8.4620   -0.4775   -3.7699 H   0  0  0  0  0  0  0  0  0  0  0  0
   -9.9576   -0.0573   -5.7026 H   0  0  0  0  0  0  0  0  0  0  0  0
   -9.4743   -1.7688   -5.6290 H   0  0  0  0  0  0  0  0  0  0  0  0
   -9.3056   -0.8951   -7.9434 H   0  0  0  0  0  0  0  0  0  0  0  0
   -7.7029   -1.3410   -7.3105 H   0  0  0  0  0  0  0  0  0  0  0  0
   -8.8788    1.4755   -7.3546 H   0  0  0  0  0  0  0  0  0  0  0  0
   -7.6270    0.8559   -8.4580 H   0  0  0  0  0  0  0  0  0  0  0  0
   -6.6146    2.1472   -6.5989 H   0  0  0  0  0  0  0  0  0  0  0  0
   -6.1314    0.4357   -6.5253 H   0  0  0  0  0  0  0  0  0  0  0  0
    0.0021   -0.0041    0.0020 O   0  5  0  0  0  0  0  0  0  0  0  0
  1  2  1  0  0  0  0
  1 28  1  0  0  0  0
  1 29  1  0  0  0  0
  1 30  1  0  0  0  0
  2  7  2  0  0  0  0
  2  3  1  0  0  0  0
  3  4  2  0  0  0  0
  3 31  1  0  0  0  0
  4  5  1  0  0  0  0
  4 32  1  0  0  0  0
  5  6  2  0  0  0  0
  5  8  1  0  0  0  0
  6  7  1  0  0  0  0
  6 33  1  0  0  0  0
  7 34  1  0  0  0  0
  8  9  1  0  0  0  0
  9 10  1  0  0  0  0
  9 11  1  0  0  0  0
  9 26  1  0  0  0  0
 11 12  1  0  0  0  0
 11 35  1  0  0  0  0
 11 36  1  0  0  0  0
 12 13  2  0  0  0  0
 12 14  1  0  0  0  0
 14 19  2  0  0  0  0
 14 15  1  0  0  0  0
 15 16  2  0  0  0  0
 15 37  1  0  0  0  0
 16 17  1  0  0  0  0
 16 38  1  0  0  0  0
 17 18  2  0  0  0  0
 17 20  1  0  0  0  0
 18 19  1  0  0  0  0
 18 39  1  0  0  0  0
 19 40  1  0  0  0  0
 20 25  1  0  0  0  0
 20 21  1  0  0  0  0
 20 41  1  0  0  0  0
 21 22  1  0  0  0  0
 21 42  1  0  0  0  0
 21 43  1  0  0  0  0
 22 23  1  0  0  0  0
 22 44  1  0  0  0  0
 22 45  1  0  0  0  0
 23 24  1  0  0  0  0
 23 46  1  0  0  0  0
 23 47  1  0  0  0  0
 24 25  1  0  0  0  0
 24 48  1  0  0  0  0
 24 49  1  0  0  0  0
 25 50  1  0  0  0  0
 25 51  1  0  0  0  0
 26 27  2  0  0  0  0
 26 52  1  0  0  0  0
M  CHG  1  52  -1
M  END
$$$$
ZINC02570987
  -OEChem-08230709463D

 55 57  0     1  0  0  0  0  0999 V2000
   -0.4170    0.6823   -6.2103 C   0  0  0  0  0  0  0  0  0  0  0  0
    0.0913    0.4599   -4.9479 C   0  0  0  0  0  0  0  0  0  0  0  0
   -0.5405    1.0231   -3.8346 C   0  0  0  0  0  0  0  0  0  0  0  0
   -1.6874    1.8038   -4.0111 C   0  0  0  0  0  0  0  0  0  0  0  0
   -2.1803    2.0212   -5.2804 C   0  0  0  0  0  0  0  0  0  0  0  0
   -1.5495    1.4601   -6.3771 C   0  0  0  0  0  0  0  0  0  0  0  0
   -2.0986    1.6976   -7.7603 C   0  0  0  0  0  0  0  0  0  0  0  0
   -2.0987    3.1983   -8.0582 C   0  0  0  0  0  0  0  0  0  0  0  0
   -2.6562    3.4395   -9.4625 C   0  0  0  0  0  0  0  0  0  0  0  0
   -4.0870    2.9036   -9.5422 C   0  0  0  0  0  0  0  0  0  0  0  0
   -4.0869    1.4029   -9.2442 C   0  0  0  0  0  0  0  0  0  0  0  0
   -3.5295    1.1617   -7.8400 C   0  0  0  0  0  0  0  0  0  0  0  0
   -0.0049    0.7903   -2.4838 C   0  0  0  0  0  0  0  0  0  0  0  0
    0.9867    0.1088   -2.3339 O   0  0  0  0  0  0  0  0  0  0  0  0
   -0.6888    1.3991   -1.2868 C   0  0  0  0  0  0  0  0  0  0  0  0
    0.0639    1.0052   -0.0143 C   0  0  2  0  0  0  0  0  0  0  0  0
    0.1464   -0.0804    0.0377 H   0  0  0  0  0  0  0  0  0  0  0  0
   -0.6875    1.5102    1.1904 C   0  0  0  0  0  0  0  0  0  0  0  0
   -0.8690    0.7827    2.1379 O   0  0  0  0  0  0  0  0  0  0  0  0
    1.7235    1.7371   -0.0425 S   0  0  0  0  0  0  0  0  0  0  0  0
    2.5458    1.0156    1.4045 C   0  0  0  0  0  0  0  0  0  0  0  0
    3.9097    1.6809    1.6004 C   0  0  0  0  0  0  0  0  0  0  0  0
    4.6033    1.0724    2.8209 C   0  0  0  0  0  0  0  0  0  0  0  0
    4.7952   -0.4297    2.6022 C   0  0  0  0  0  0  0  0  0  0  0  0
    3.4314   -1.0950    2.4063 C   0  0  0  0  0  0  0  0  0  0  0  0
    2.7378   -0.4865    1.1859 C   0  0  0  0  0  0  0  0  0  0  0  0
    0.0698    0.2481   -7.0710 H   0  0  0  0  0  0  0  0  0  0  0  0
    0.9747   -0.1478   -4.8193 H   0  0  0  0  0  0  0  0  0  0  0  0
   -2.1832    2.2387   -3.1559 H   0  0  0  0  0  0  0  0  0  0  0  0
   -3.0634    2.6273   -5.4187 H   0  0  0  0  0  0  0  0  0  0  0  0
   -1.4763    1.1820   -8.4917 H   0  0  0  0  0  0  0  0  0  0  0  0
   -2.7210    3.7139   -7.3268 H   0  0  0  0  0  0  0  0  0  0  0  0
   -1.0793    3.5801   -8.0014 H   0  0  0  0  0  0  0  0  0  0  0  0
   -2.0338    2.9239  -10.1939 H   0  0  0  0  0  0  0  0  0  0  0  0
   -2.6562    4.5086   -9.6747 H   0  0  0  0  0  0  0  0  0  0  0  0
   -4.4842    3.0754  -10.5426 H   0  0  0  0  0  0  0  0  0  0  0  0
   -4.7094    3.4192   -8.8107 H   0  0  0  0  0  0  0  0  0  0  0  0
   -3.4646    0.8873   -9.9757 H   0  0  0  0  0  0  0  0  0  0  0  0
   -5.1063    1.0211   -9.3010 H   0  0  0  0  0  0  0  0  0  0  0  0
   -3.5294    0.0926   -7.6277 H   0  0  0  0  0  0  0  0  0  0  0  0
   -4.1518    1.6773   -7.1085 H   0  0  0  0  0  0  0  0  0  0  0  0
   -1.6297    1.0645   -1.2346 H   0  0  0  0  0  0  0  0  0  0  0  0
   -0.6942    2.4847   -1.3845 H   0  0  0  0  0  0  0  0  0  0  0  0
    1.9317    1.1783    2.2902 H   0  0  0  0  0  0  0  0  0  0  0  0
    4.5238    1.5182    0.7148 H   0  0  0  0  0  0  0  0  0  0  0  0
    3.7729    2.7510    1.7562 H   0  0  0  0  0  0  0  0  0  0  0  0
    3.9891    1.2350    3.7066 H   0  0  0  0  0  0  0  0  0  0  0  0
    5.5749    1.5463    2.9605 H   0  0  0  0  0  0  0  0  0  0  0  0
    5.2894   -0.8632    3.4717 H   0  0  0  0  0  0  0  0  0  0  0  0
    5.4094   -0.5924    1.7166 H   0  0  0  0  0  0  0  0  0  0  0  0
    2.8172   -0.9323    3.2920 H   0  0  0  0  0  0  0  0  0  0  0  0
    3.5682   -2.1651    2.2505 H   0  0  0  0  0  0  0  0  0  0  0  0
    1.7662   -0.9604    1.0463 H   0  0  0  0  0  0  0  0  0  0  0  0
    3.3520   -0.6491    0.3002 H   0  0  0  0  0  0  0  0  0  0  0  0
   -1.1551    2.7683    1.2110 O   0  5  0  0  0  0  0  0  0  0  0  0
  1  6  2  0  0  0  0
  1  2  1  0  0  0  0
  1 27  1  0  0  0  0
  2  3  2  0  0  0  0
  2 28  1  0  0  0  0
  3  4  1  0  0  0  0
  3 13  1  0  0  0  0
  4  5  2  0  0  0  0
  4 29  1  0  0  0  0
  5  6  1  0  0  0  0
  5 30  1  0  0  0  0
  6  7  1  0  0  0  0
  7 12  1  0  0  0  0
  7  8  1  0  0  0  0
  7 31  1  0  0  0  0
  8  9  1  0  0  0  0
  8 32  1  0  0  0  0
  8 33  1  0  0  0  0
  9 10  1  0  0  0  0
  9 34  1  0  0  0  0
  9 35  1  0  0  0  0
 10 11  1  0  0  0  0
 10 36  1  0  0  0  0
 10 37  1  0  0  0  0
 11 12  1  0  0  0  0
 11 38  1  0  0  0  0
 11 39  1  0  0  0  0
 12 40  1  0  0  0  0
 12 41  1  0  0  0  0
 13 14  2  0  0  0  0
 13 15  1  0  0  0  0
 15 16  1  0  0  0  0
 15 42  1  0  0  0  0
 15 43  1  0  0  0  0
 16 17  1  0  0  0  0
 16 18  1  0  0  0  0
 16 20  1  0  0  0  0
 18 19  2  0  0  0  0
 18 55  1  0  0  0  0
 20 21  1  0  0  0  0
 21 26  1  0  0  0  0
 21 22  1  0  0  0  0
 21 44  1  0  0  0  0
 22 23  1  0  0  0  0
 22 45  1  0  0  0  0
 22 46  1  0  0  0  0
 23 24  1  0  0  0  0
 23 47  1  0  0  0  0
 23 48  1  0  0  0  0
 24 25  1  0  0  0  0
 24 49  1  0  0  0  0
 24 50  1  0  0  0  0
 25 26  1  0  0  0  0
 25 51  1  0  0  0  0
 25 52  1  0  0  0  0
 26 53  1  0  0  0  0
 26 54  1  0  0  0  0
M  CHG  1  55  -1
M  END
$$$$
ZINC02577481
  -OEChem-08230709463D

 52 53  0     1  0  0  0  0  0999 V2000
    3.9141    2.4597    4.1094 C   0  0  0  0  0  0  0  0  0  0  0  0
    4.4284    2.6745    2.6846 C   0  0  0  0  0  0  0  0  0  0  0  0
    5.9413    2.4491    2.6491 C   0  0  0  0  0  0  0  0  0  0  0  0
    4.1152    4.1044    2.2395 C   0  0  0  0  0  0  0  0  0  0  0  0
    3.7780    1.7352    1.7885 O   0  0  0  0  0  0  0  0  0  0  0  0
    2.4360    1.8016    1.7025 C   0  0  0  0  0  0  0  0  0  0  0  0
    1.8250    2.6220    2.3584 O   0  0  0  0  0  0  0  0  0  0  0  0
    1.7703    0.9581    0.8890 N   0  0  0  0  0  0  0  0  0  0  0  0
    2.3815   -0.0773    0.0429 C   0  0  0  0  0  0  0  0  0  0  0  0
    1.2349   -0.8079   -0.6874 C   0  0  0  0  0  0  0  0  0  0  0  0
    0.0074   -0.5193    0.2167 C   0  0  1  0  0  0  0  0  0  0  0  0
   -0.0308   -1.2129    1.0567 H   0  0  0  0  0  0  0  0  0  0  0  0
    0.3087    0.9215    0.6996 C   0  0  0  0  0  0  0  0  0  0  0  0
   -1.2914   -0.5668   -0.5904 C   0  0  2  0  0  0  0  0  0  0  0  0
   -1.2332    0.1440   -1.4147 H   0  0  0  0  0  0  0  0  0  0  0  0
   -2.4511   -0.2069    0.3022 C   0  0  0  0  0  0  0  0  0  0  0  0
   -3.0660   -1.0759    0.8736 O   0  0  0  0  0  0  0  0  0  0  0  0
   -1.4862   -1.9175   -1.1232 N   0  0  0  0  0  0  0  0  0  0  0  0
   -2.2300   -2.1040   -2.2316 C   0  0  0  0  0  0  0  0  0  0  0  0
   -2.7391   -1.1519   -2.7889 O   0  0  0  0  0  0  0  0  0  0  0  0
   -2.4089   -3.3454   -2.7212 O   0  0  0  0  0  0  0  0  0  0  0  0
   -3.2217   -3.4712   -3.9178 C   0  0  0  0  0  0  0  0  0  0  0  0
   -3.3096   -4.9222   -4.3151 C   0  0  0  0  0  0  0  0  0  0  0  0
   -2.3747   -5.4600   -5.1797 C   0  0  0  0  0  0  0  0  0  0  0  0
   -2.4528   -6.7921   -5.5407 C   0  0  0  0  0  0  0  0  0  0  0  0
   -3.4711   -7.5842   -5.0442 C   0  0  0  0  0  0  0  0  0  0  0  0
   -4.4091   -7.0451   -4.1837 C   0  0  0  0  0  0  0  0  0  0  0  0
   -4.3285   -5.7141   -3.8193 C   0  0  0  0  0  0  0  0  0  0  0  0
    4.1372    1.4410    4.4265 H   0  0  0  0  0  0  0  0  0  0  0  0
    4.4023    3.1648    4.7821 H   0  0  0  0  0  0  0  0  0  0  0  0
    2.8363    2.6203    4.1347 H   0  0  0  0  0  0  0  0  0  0  0  0
    6.3077    2.6022    1.6340 H   0  0  0  0  0  0  0  0  0  0  0  0
    6.4296    3.1543    3.3218 H   0  0  0  0  0  0  0  0  0  0  0  0
    6.1644    1.4304    2.9662 H   0  0  0  0  0  0  0  0  0  0  0  0
    3.0374    4.2650    2.2648 H   0  0  0  0  0  0  0  0  0  0  0  0
    4.6035    4.8095    2.9122 H   0  0  0  0  0  0  0  0  0  0  0  0
    4.4816    4.2575    1.2244 H   0  0  0  0  0  0  0  0  0  0  0  0
    2.9355   -0.7827    0.6622 H   0  0  0  0  0  0  0  0  0  0  0  0
    3.0507    0.3824   -0.6844 H   0  0  0  0  0  0  0  0  0  0  0  0
    1.4318   -1.8787   -0.7401 H   0  0  0  0  0  0  0  0  0  0  0  0
    1.0846   -0.3952   -1.6850 H   0  0  0  0  0  0  0  0  0  0  0  0
    0.0059    1.6460   -0.0563 H   0  0  0  0  0  0  0  0  0  0  0  0
   -0.2011    1.1200    1.6423 H   0  0  0  0  0  0  0  0  0  0  0  0
   -1.0798   -2.6777   -0.6783 H   0  0  0  0  0  0  0  0  0  0  0  0
   -4.2225   -3.0876   -3.7192 H   0  0  0  0  0  0  0  0  0  0  0  0
   -2.7675   -2.8997   -4.7273 H   0  0  0  0  0  0  0  0  0  0  0  0
   -1.5812   -4.8402   -5.5705 H   0  0  0  0  0  0  0  0  0  0  0  0
   -1.7197   -7.2133   -6.2127 H   0  0  0  0  0  0  0  0  0  0  0  0
   -3.5337   -8.6242   -5.3283 H   0  0  0  0  0  0  0  0  0  0  0  0
   -5.2047   -7.6639   -3.7958 H   0  0  0  0  0  0  0  0  0  0  0  0
   -5.0613   -5.2929   -3.1470 H   0  0  0  0  0  0  0  0  0  0  0  0
   -2.8007    1.0791    0.4625 O   0  5  0  0  0  0  0  0  0  0  0  0
  1  2  1  0  0  0  0
  1 29  1  0  0  0  0
  1 30  1  0  0  0  0
  1 31  1  0  0  0  0
  2  3  1  0  0  0  0
  2  4  1  0  0  0  0
  2  5  1  0  0  0  0
  3 32  1  0  0  0  0
  3 33  1  0  0  0  0
  3 34  1  0  0  0  0
  4 35  1  0  0  0  0
  4 36  1  0  0  0  0
  4 37  1  0  0  0  0
  5  6  1  0  0  0  0
  6  7  2  0  0  0  0
  6  8  1  0  0  0  0
  8 13  1  0  0  0  0
  8  9  1  0  0  0  0
  9 10  1  0  0  0  0
  9 38  1  0  0  0  0
  9 39  1  0  0  0  0
 10 11  1  0  0  0  0
 10 40  1  0  0  0  0
 10 41  1  0  0  0  0
 11 12  1  0  0  0  0
 11 13  1  0  0  0  0
 11 14  1  0  0  0  0
 13 42  1  0  0  0  0
 13 43  1  0  0  0  0
 14 15  1  0  0  0  0
 14 16  1  0  0  0  0
 14 18  1  0  0  0  0
 16 17  2  0  0  0  0
 16 52  1  0  0  0  0
 18 19  1  0  0  0  0
 18 44  1  0  0  0  0
 19 20  2  0  0  0  0
 19 21  1  0  0  0  0
 21 22  1  0  0  0  0
 22 23  1  0  0  0  0
 22 45  1  0  0  0  0
 22 46  1  0  0  0  0
 23 28  2  0  0  0  0
 23 24  1  0  0  0  0
 24 25  2  0  0  0  0
 24 47  1  0  0  0  0
 25 26  1  0  0  0  0
 25 48  1  0  0  0  0
 26 27  2  0  0  0  0
 26 49  1  0  0  0  0
 27 28  1  0  0  0  0
 27 50  1  0  0  0  0
 28 51  1  0  0  0  0
M  CHG  1  52  -1
M  END
$$$$
ZINC02577483
  -OEChem-08230709463D

 52 53  0     1  0  0  0  0  0999 V2000
    0.6564    2.2876    5.0186 C   0  0  0  0  0  0  0  0  0  0  0  0
   -0.7116    1.6412    4.7919 C   0  0  0  0  0  0  0  0  0  0  0  0
   -1.7254    2.2362    5.7713 C   0  0  0  0  0  0  0  0  0  0  0  0
   -0.6068    0.1320    5.0205 C   0  0  0  0  0  0  0  0  0  0  0  0
   -1.1474    1.8954    3.4304 O   0  0  0  0  0  0  0  0  0  0  0  0
   -0.3604    1.4333    2.4404 C   0  0  0  0  0  0  0  0  0  0  0  0
    0.6625    0.8341    2.7070 O   0  0  0  0  0  0  0  0  0  0  0  0
   -0.7072    1.6354    1.1538 N   0  0  0  0  0  0  0  0  0  0  0  0
   -1.8621    2.4253    0.6892 C   0  0  0  0  0  0  0  0  0  0  0  0
   -2.1868    1.8633   -0.7173 C   0  0  0  0  0  0  0  0  0  0  0  0
   -0.7638    1.5715   -1.2737 C   0  0  0  0  0  0  0  0  0  0  0  0
    0.0039    1.1054   -0.0187 C   0  0  1  0  0  0  0  0  0  0  0  0
    0.0235    0.0163    0.0207 H   0  0  0  0  0  0  0  0  0  0  0  0
    1.4331    1.6505   -0.0507 C   0  0  2  0  0  0  0  0  0  0  0  0
    1.9690    1.3175    0.8381 H   0  0  0  0  0  0  0  0  0  0  0  0
    1.3957    3.1568   -0.0799 C   0  0  0  0  0  0  0  0  0  0  0  0
    1.8903    3.7556   -1.0055 O   0  0  0  0  0  0  0  0  0  0  0  0
    2.1178    1.1558   -1.2477 N   0  0  0  0  0  0  0  0  0  0  0  0
    3.4541    0.9811   -1.2359 C   0  0  0  0  0  0  0  0  0  0  0  0
    4.0911    1.2339   -0.2325 O   0  0  0  0  0  0  0  0  0  0  0  0
    4.0833    0.5264   -2.3359 O   0  0  0  0  0  0  0  0  0  0  0  0
    5.5235    0.3624   -2.2511 C   0  0  0  0  0  0  0  0  0  0  0  0
    6.0490   -0.1511   -3.5669 C   0  0  0  0  0  0  0  0  0  0  0  0
    6.1447   -1.5121   -3.7891 C   0  0  0  0  0  0  0  0  0  0  0  0
    6.6230   -1.9832   -4.9976 C   0  0  0  0  0  0  0  0  0  0  0  0
    7.0132   -1.0932   -5.9807 C   0  0  0  0  0  0  0  0  0  0  0  0
    6.9224    0.2678   -5.7565 C   0  0  0  0  0  0  0  0  0  0  0  0
    6.4404    0.7389   -4.5495 C   0  0  0  0  0  0  0  0  0  0  0  0
    0.5817    3.3628    4.8558 H   0  0  0  0  0  0  0  0  0  0  0  0
    0.9835    2.0968    6.0408 H   0  0  0  0  0  0  0  0  0  0  0  0
    1.3787    1.8638    4.3209 H   0  0  0  0  0  0  0  0  0  0  0  0
   -2.7001    1.7757    5.6098 H   0  0  0  0  0  0  0  0  0  0  0  0
   -1.3983    2.0454    6.7934 H   0  0  0  0  0  0  0  0  0  0  0  0
   -1.8001    3.3113    5.6084 H   0  0  0  0  0  0  0  0  0  0  0  0
    0.1154   -0.2918    4.3228 H   0  0  0  0  0  0  0  0  0  0  0  0
   -0.2797   -0.0588    6.0427 H   0  0  0  0  0  0  0  0  0  0  0  0
   -1.5814   -0.3285    4.8590 H   0  0  0  0  0  0  0  0  0  0  0  0
   -2.7109    2.2861    1.3586 H   0  0  0  0  0  0  0  0  0  0  0  0
   -1.5988    3.4812    0.6261 H   0  0  0  0  0  0  0  0  0  0  0  0
   -2.7742    0.9478   -0.6462 H   0  0  0  0  0  0  0  0  0  0  0  0
   -2.6994    2.6076   -1.3267 H   0  0  0  0  0  0  0  0  0  0  0  0
   -0.3166    2.4762   -1.6855 H   0  0  0  0  0  0  0  0  0  0  0  0
   -0.7951    0.7802   -2.0227 H   0  0  0  0  0  0  0  0  0  0  0  0
    1.6093    0.9539   -2.0487 H   0  0  0  0  0  0  0  0  0  0  0  0
    5.9860    1.3232   -2.0253 H   0  0  0  0  0  0  0  0  0  0  0  0
    5.7622   -0.3502   -1.4616 H   0  0  0  0  0  0  0  0  0  0  0  0
    5.8431   -2.2075   -3.0198 H   0  0  0  0  0  0  0  0  0  0  0  0
    6.6944   -3.0465   -5.1726 H   0  0  0  0  0  0  0  0  0  0  0  0
    7.3894   -1.4612   -6.9238 H   0  0  0  0  0  0  0  0  0  0  0  0
    7.2275    0.9632   -6.5245 H   0  0  0  0  0  0  0  0  0  0  0  0
    6.3694    1.8022   -4.3744 H   0  0  0  0  0  0  0  0  0  0  0  0
    0.8131    3.8332    0.9224 O   0  5  0  0  0  0  0  0  0  0  0  0
  1  2  1  0  0  0  0
  1 29  1  0  0  0  0
  1 30  1  0  0  0  0
  1 31  1  0  0  0  0
  2  3  1  0  0  0  0
  2  4  1  0  0  0  0
  2  5  1  0  0  0  0
  3 32  1  0  0  0  0
  3 33  1  0  0  0  0
  3 34  1  0  0  0  0
  4 35  1  0  0  0  0
  4 36  1  0  0  0  0
  4 37  1  0  0  0  0
  5  6  1  0  0  0  0
  6  7  2  0  0  0  0
  6  8  1  0  0  0  0
  8 12  1  0  0  0  0
  8  9  1  0  0  0  0
  9 10  1  0  0  0  0
  9 38  1  0  0  0  0
  9 39  1  0  0  0  0
 10 11  1  0  0  0  0
 10 40  1  0  0  0  0
 10 41  1  0  0  0  0
 11 12  1  0  0  0  0
 11 42  1  0  0  0  0
 11 43  1  0  0  0  0
 12 13  1  0  0  0  0
 12 14  1  0  0  0  0
 14 15  1  0  0  0  0
 14 16  1  0  0  0  0
 14 18  1  0  0  0  0
 16 17  2  0  0  0  0
 16 52  1  0  0  0  0
 18 19  1  0  0  0  0
 18 44  1  0  0  0  0
 19 20  2  0  0  0  0
 19 21  1  0  0  0  0
 21 22  1  0  0  0  0
 22 23  1  0  0  0  0
 22 45  1  0  0  0  0
 22 46  1  0  0  0  0
 23 28  2  0  0  0  0
 23 24  1  0  0  0  0
 24 25  2  0  0  0  0
 24 47  1  0  0  0  0
 25 26  1  0  0  0  0
 25 48  1  0  0  0  0
 26 27  2  0  0  0  0
 26 49  1  0  0  0  0
 27 28  1  0  0  0  0
 27 50  1  0  0  0  0
 28 51  1  0  0  0  0
M  CHG  1  52  -1
M  END
$$$$
ZINC02577485
  -OEChem-08230709463D

 49 50  0     1  0  0  0  0  0999 V2000
    3.5432   11.4515   -0.6646 C   0  0  0  0  0  0  0  0  0  0  0  0
    2.2364   11.0346    0.0132 C   0  0  0  0  0  0  0  0  0  0  0  0
    1.0678   11.7880   -0.6253 C   0  0  0  0  0  0  0  0  0  0  0  0
    2.3057   11.3700    1.5044 C   0  0  0  0  0  0  0  0  0  0  0  0
    2.0396    9.6056   -0.1529 O   0  0  0  0  0  0  0  0  0  0  0  0
    2.9860    8.7949    0.3566 C   0  0  0  0  0  0  0  0  0  0  0  0
    3.9502    9.2685    0.9246 O   0  0  0  0  0  0  0  0  0  0  0  0
    2.8641    7.4580    0.2368 N   0  0  0  0  0  0  0  0  0  0  0  0
    3.6800    6.3030    0.6589 C   0  0  0  0  0  0  0  0  0  0  0  0
    2.3698    5.4959    0.6186 C   0  0  0  0  0  0  0  0  0  0  0  0
    1.8609    6.5612   -0.3693 C   0  0  0  0  0  0  0  0  0  0  0  0
    2.5220    4.1048    0.0000 C   0  0  2  0  0  0  0  0  0  0  0  0
    3.2413    3.5262    0.5795 H   0  0  0  0  0  0  0  0  0  0  0  0
    3.0106    4.2370   -1.4194 C   0  0  0  0  0  0  0  0  0  0  0  0
    2.3445    3.8051   -2.3303 O   0  0  0  0  0  0  0  0  0  0  0  0
    1.2258    3.4220    0.0087 N   0  0  0  0  0  0  0  0  0  0  0  0
    1.1736    2.0753    0.0020 C   0  0  0  0  0  0  0  0  0  0  0  0
    2.2015    1.4274   -0.0113 O   0  0  0  0  0  0  0  0  0  0  0  0
   -0.0176    1.4478    0.0100 O   0  0  0  0  0  0  0  0  0  0  0  0
    0.0021   -0.0041    0.0020 C   0  0  0  0  0  0  0  0  0  0  0  0
   -1.4117   -0.5257    0.0127 C   0  0  0  0  0  0  0  0  0  0  0  0
   -2.0468   -0.7767    1.2146 C   0  0  0  0  0  0  0  0  0  0  0  0
   -3.3453   -1.2506    1.2245 C   0  0  0  0  0  0  0  0  0  0  0  0
   -4.0053   -1.4830    0.0323 C   0  0  0  0  0  0  0  0  0  0  0  0
   -3.3683   -1.2374   -1.1696 C   0  0  0  0  0  0  0  0  0  0  0  0
   -2.0716   -0.7585   -1.1795 C   0  0  0  0  0  0  0  0  0  0  0  0
    3.4939   11.2126   -1.7269 H   0  0  0  0  0  0  0  0  0  0  0  0
    3.6910   12.5242   -0.5399 H   0  0  0  0  0  0  0  0  0  0  0  0
    4.3758   10.9148   -0.2098 H   0  0  0  0  0  0  0  0  0  0  0  0
    0.1369   11.4910   -0.1424 H   0  0  0  0  0  0  0  0  0  0  0  0
    1.2156   12.8607   -0.5006 H   0  0  0  0  0  0  0  0  0  0  0  0
    1.0185   11.5491   -1.6876 H   0  0  0  0  0  0  0  0  0  0  0  0
    3.1383   10.8332    1.9592 H   0  0  0  0  0  0  0  0  0  0  0  0
    2.4536   12.4427    1.6290 H   0  0  0  0  0  0  0  0  0  0  0  0
    1.3748   11.0729    1.9872 H   0  0  0  0  0  0  0  0  0  0  0  0
    4.1024    6.4054    1.6585 H   0  0  0  0  0  0  0  0  0  0  0  0
    4.4130    5.9881   -0.0838 H   0  0  0  0  0  0  0  0  0  0  0  0
    1.8331    5.4827    1.5673 H   0  0  0  0  0  0  0  0  0  0  0  0
    2.0595    6.3221   -1.4141 H   0  0  0  0  0  0  0  0  0  0  0  0
    0.8308    6.8697   -0.1907 H   0  0  0  0  0  0  0  0  0  0  0  0
    0.4053    3.9392    0.0193 H   0  0  0  0  0  0  0  0  0  0  0  0
    0.5123   -0.3556   -0.8948 H   0  0  0  0  0  0  0  0  0  0  0  0
    0.5293   -0.3651    0.8851 H   0  0  0  0  0  0  0  0  0  0  0  0
   -1.5297   -0.5990    2.1460 H   0  0  0  0  0  0  0  0  0  0  0  0
   -3.8429   -1.4429    2.1636 H   0  0  0  0  0  0  0  0  0  0  0  0
   -5.0186   -1.8568    0.0400 H   0  0  0  0  0  0  0  0  0  0  0  0
   -3.8838   -1.4192   -2.1011 H   0  0  0  0  0  0  0  0  0  0  0  0
   -1.5739   -0.5666   -2.1185 H   0  0  0  0  0  0  0  0  0  0  0  0
    4.1858    4.8344   -1.6718 O   0  5  0  0  0  0  0  0  0  0  0  0
  1  2  1  0  0  0  0
  1 27  1  0  0  0  0
  1 28  1  0  0  0  0
  1 29  1  0  0  0  0
  2  3  1  0  0  0  0
  2  4  1  0  0  0  0
  2  5  1  0  0  0  0
  3 30  1  0  0  0  0
  3 31  1  0  0  0  0
  3 32  1  0  0  0  0
  4 33  1  0  0  0  0
  4 34  1  0  0  0  0
  4 35  1  0  0  0  0
  5  6  1  0  0  0  0
  6  7  2  0  0  0  0
  6  8  1  0  0  0  0
  8 11  1  0  0  0  0
  8  9  1  0  0  0  0
  9 10  1  0  0  0  0
  9 36  1  0  0  0  0
  9 37  1  0  0  0  0
 10 11  1  0  0  0  0
 10 12  1  0  0  0  0
 10 38  1  0  0  0  0
 11 39  1  0  0  0  0
 11 40  1  0  0  0  0
 12 13  1  0  0  0  0
 12 14  1  0  0  0  0
 12 16  1  0  0  0  0
 14 15  2  0  0  0  0
 14 49  1  0  0  0  0
 16 17  1  0  0  0  0
 16 41  1  0  0  0  0
 17 18  2  0  0  0  0
 17 19  1  0  0  0  0
 19 20  1  0  0  0  0
 20 21  1  0  0  0  0
 20 42  1  0  0  0  0
 20 43  1  0  0  0  0
 21 26  2  0  0  0  0
 21 22  1  0  0  0  0
 22 23  2  0  0  0  0
 22 44  1  0  0  0  0
 23 24  1  0  0  0  0
 23 45  1  0  0  0  0
 24 25  2  0  0  0  0
 24 46  1  0  0  0  0
 25 26  1  0  0  0  0
 25 47  1  0  0  0  0
 26 48  1  0  0  0  0
M  CHG  1  49  -1
M  END
$$$$
ZINC02585312
  -OEChem-08230709463D

 53 54  0     0  0  0  0  0  0999 V2000
   -8.1369    2.9192    0.0936 C   0  0  0  0  0  0  0  0  0  0  0  0
   -6.6656    3.2250   -0.1942 C   0  0  0  0  0  0  0  0  0  0  0  0
   -6.0867    2.1374   -1.1013 C   0  0  0  0  0  0  0  0  0  0  0  0
   -5.8970    3.2601    1.1016 C   0  0  0  0  0  0  0  0  0  0  0  0
   -5.8604    2.1378    1.9108 C   0  0  0  0  0  0  0  0  0  0  0  0
   -5.1554    2.1604    3.0955 C   0  0  0  0  0  0  0  0  0  0  0  0
   -4.4850    3.3250    3.4840 C   0  0  0  0  0  0  0  0  0  0  0  0
   -4.5313    4.4567    2.6631 C   0  0  0  0  0  0  0  0  0  0  0  0
   -5.2363    4.4163    1.4788 C   0  0  0  0  0  0  0  0  0  0  0  0
   -3.7348    3.3593    4.7487 C   0  0  0  0  0  0  0  0  0  0  0  0
   -2.7629    4.2831    4.9344 C   0  0  0  0  0  0  0  0  0  0  0  0
   -2.1383    4.4367    6.2547 C   0  0  0  0  0  0  0  0  0  0  0  0
   -2.5641    3.8096    7.2053 O   0  0  0  0  0  0  0  0  0  0  0  0
   -2.3538    5.0911    3.8692 N   0  0  0  0  0  0  0  0  0  0  0  0
   -2.3959    6.4331    3.9864 C   0  0  0  0  0  0  0  0  0  0  0  0
   -2.7016    6.9414    5.0480 O   0  0  0  0  0  0  0  0  0  0  0  0
   -2.0712    7.2857    2.8264 C   0  0  0  0  0  0  0  0  0  0  0  0
   -1.7143    6.7030    1.6077 C   0  0  0  0  0  0  0  0  0  0  0  0
   -1.4158    7.5039    0.5213 C   0  0  0  0  0  0  0  0  0  0  0  0
   -1.4598    8.8901    0.6437 C   0  0  0  0  0  0  0  0  0  0  0  0
   -1.8100    9.4733    1.8585 C   0  0  0  0  0  0  0  0  0  0  0  0
   -2.1146    8.6770    2.9465 C   0  0  0  0  0  0  0  0  0  0  0  0
   -1.8520   10.8277    1.9748 O   0  0  0  0  0  0  0  0  0  0  0  0
   -2.2186   11.3583    3.2500 C   0  0  0  0  0  0  0  0  0  0  0  0
   -1.1608    9.6752   -0.4245 O   0  0  0  0  0  0  0  0  0  0  0  0
    0.2064   10.0584   -0.5855 C   0  0  0  0  0  0  0  0  0  0  0  0
   -1.0734    6.9373   -0.6668 O   0  0  0  0  0  0  0  0  0  0  0  0
   -1.0485    5.5095   -0.7213 C   0  0  0  0  0  0  0  0  0  0  0  0
   -8.2166    1.9519    0.5897 H   0  0  0  0  0  0  0  0  0  0  0  0
   -8.5493    3.6940    0.7398 H   0  0  0  0  0  0  0  0  0  0  0  0
   -8.6928    2.8938   -0.8436 H   0  0  0  0  0  0  0  0  0  0  0  0
   -6.5859    4.1923   -0.6903 H   0  0  0  0  0  0  0  0  0  0  0  0
   -6.1664    1.1701   -0.6052 H   0  0  0  0  0  0  0  0  0  0  0  0
   -6.6426    2.1120   -2.0385 H   0  0  0  0  0  0  0  0  0  0  0  0
   -5.0385    2.3552   -1.3063 H   0  0  0  0  0  0  0  0  0  0  0  0
   -6.3823    1.2409    1.6116 H   0  0  0  0  0  0  0  0  0  0  0  0
   -5.1244    1.2826    3.7239 H   0  0  0  0  0  0  0  0  0  0  0  0
   -4.0165    5.3597    2.9562 H   0  0  0  0  0  0  0  0  0  0  0  0
   -5.2727    5.2891    0.8437 H   0  0  0  0  0  0  0  0  0  0  0  0
   -3.9593    2.6474    5.5292 H   0  0  0  0  0  0  0  0  0  0  0  0
   -2.0395    4.6858    3.0458 H   0  0  0  0  0  0  0  0  0  0  0  0
   -1.6754    5.6279    1.5135 H   0  0  0  0  0  0  0  0  0  0  0  0
   -2.3854    9.1300    3.8888 H   0  0  0  0  0  0  0  0  0  0  0  0
   -3.2170   11.0105    3.5149 H   0  0  0  0  0  0  0  0  0  0  0  0
   -1.5052   11.0217    4.0023 H   0  0  0  0  0  0  0  0  0  0  0  0
   -2.2131   12.4474    3.2056 H   0  0  0  0  0  0  0  0  0  0  0  0
    0.3068   10.6818   -1.4740 H   0  0  0  0  0  0  0  0  0  0  0  0
    0.5321   10.6193    0.2905 H   0  0  0  0  0  0  0  0  0  0  0  0
    0.8232    9.1665   -0.6958 H   0  0  0  0  0  0  0  0  0  0  0  0
   -0.3270    5.1308    0.0026 H   0  0  0  0  0  0  0  0  0  0  0  0
   -2.0387    5.1196   -0.4855 H   0  0  0  0  0  0  0  0  0  0  0  0
   -0.7609    5.1891   -1.7227 H   0  0  0  0  0  0  0  0  0  0  0  0
   -1.0924    5.2734    6.4127 O   0  5  0  0  0  0  0  0  0  0  0  0
  1  2  1  0  0  0  0
  1 29  1  0  0  0  0
  1 30  1  0  0  0  0
  1 31  1  0  0  0  0
  2  3  1  0  0  0  0
  2  4  1  0  0  0  0
  2 32  1  0  0  0  0
  3 33  1  0  0  0  0
  3 34  1  0  0  0  0
  3 35  1  0  0  0  0
  4  9  2  0  0  0  0
  4  5  1  0  0  0  0
  5  6  2  0  0  0  0
  5 36  1  0  0  0  0
  6  7  1  0  0  0  0
  6 37  1  0  0  0  0
  7  8  2  0  0  0  0
  7 10  1  0  0  0  0
  8  9  1  0  0  0  0
  8 38  1  0  0  0  0
  9 39  1  0  0  0  0
 10 11  2  0  0  0  0
 10 40  1  0  0  0  0
 11 12  1  0  0  0  0
 11 14  1  0  0  0  0
 12 13  2  0  0  0  0
 12 53  1  0  0  0  0
 14 15  1  0  0  0  0
 14 41  1  0  0  0  0
 15 16  2  0  0  0  0
 15 17  1  0  0  0  0
 17 22  2  0  0  0  0
 17 18  1  0  0  0  0
 18 19  2  0  0  0  0
 18 42  1  0  0  0  0
 19 20  1  0  0  0  0
 19 27  1  0  0  0  0
 20 21  2  0  0  0  0
 20 25  1  0  0  0  0
 21 22  1  0  0  0  0
 21 23  1  0  0  0  0
 22 43  1  0  0  0  0
 23 24  1  0  0  0  0
 24 44  1  0  0  0  0
 24 45  1  0  0  0  0
 24 46  1  0  0  0  0
 25 26  1  0  0  0  0
 26 47  1  0  0  0  0
 26 48  1  0  0  0  0
 26 49  1  0  0  0  0
 27 28  1  0  0  0  0
 28 50  1  0  0  0  0
 28 51  1  0  0  0  0
 28 52  1  0  0  0  0
M  CHG  1  53  -1
M  END
$$$$
ZINC02585330
  -OEChem-08230709463D

 53 54  0     0  0  0  0  0  0999 V2000
    2.1070   -5.1249    1.7821 C   0  0  0  0  0  0  0  0  0  0  0  0
    2.3245   -4.6857    0.3327 C   0  0  0  0  0  0  0  0  0  0  0  0
    1.1861   -5.2204   -0.5385 C   0  0  0  0  0  0  0  0  0  0  0  0
    2.3468   -3.1805    0.2619 C   0  0  0  0  0  0  0  0  0  0  0  0
    3.4730   -2.5303   -0.2118 C   0  0  0  0  0  0  0  0  0  0  0  0
    3.5013   -1.1535   -0.2797 C   0  0  0  0  0  0  0  0  0  0  0  0
    2.3877   -0.4137    0.1318 C   0  0  0  0  0  0  0  0  0  0  0  0
    1.2555   -1.0781    0.6147 C   0  0  0  0  0  0  0  0  0  0  0  0
    1.2410   -2.4557    0.6714 C   0  0  0  0  0  0  0  0  0  0  0  0
    2.4094    1.0554    0.0626 C   0  0  0  0  0  0  0  0  0  0  0  0
    1.2523    1.7435   -0.0791 C   0  0  0  0  0  0  0  0  0  0  0  0
    1.2540    3.2095    0.0104 C   0  0  0  0  0  0  0  0  0  0  0  0
    2.2717    3.7985    0.3197 O   0  0  0  0  0  0  0  0  0  0  0  0
    0.0555    1.0587   -0.3105 N   0  0  0  0  0  0  0  0  0  0  0  0
   -1.0035    1.2601    0.4984 C   0  0  0  0  0  0  0  0  0  0  0  0
   -0.9400    2.0855    1.3888 O   0  0  0  0  0  0  0  0  0  0  0  0
   -2.2421    0.4775    0.3031 C   0  0  0  0  0  0  0  0  0  0  0  0
   -2.3203   -0.4669   -0.7218 C   0  0  0  0  0  0  0  0  0  0  0  0
   -3.4773   -1.1981   -0.8950 C   0  0  0  0  0  0  0  0  0  0  0  0
   -4.5626   -0.9888   -0.0627 C   0  0  0  0  0  0  0  0  0  0  0  0
   -4.4937   -0.0502    0.9515 C   0  0  0  0  0  0  0  0  0  0  0  0
   -3.3407    0.6837    1.1392 C   0  0  0  0  0  0  0  0  0  0  0  0
   -5.8253   -1.7871   -0.2615 C   0  0  0  0  0  0  0  0  0  0  0  0
   -6.9884   -0.8372   -0.5544 C   0  0  0  0  0  0  0  0  0  0  0  0
   -5.6418   -2.7470   -1.4387 C   0  0  0  0  0  0  0  0  0  0  0  0
   -6.1276   -2.5875    1.0069 C   0  0  0  0  0  0  0  0  0  0  0  0
    1.1572   -4.7301    2.1428 H   0  0  0  0  0  0  0  0  0  0  0  0
    2.0909   -6.2136    1.8333 H   0  0  0  0  0  0  0  0  0  0  0  0
    2.9180   -4.7439    2.4028 H   0  0  0  0  0  0  0  0  0  0  0  0
    3.2743   -5.0805   -0.0279 H   0  0  0  0  0  0  0  0  0  0  0  0
    1.3410   -4.9075   -1.5711 H   0  0  0  0  0  0  0  0  0  0  0  0
    1.1700   -6.3091   -0.4873 H   0  0  0  0  0  0  0  0  0  0  0  0
    0.2363   -4.8256   -0.1778 H   0  0  0  0  0  0  0  0  0  0  0  0
    4.3321   -3.1029   -0.5288 H   0  0  0  0  0  0  0  0  0  0  0  0
    4.3810   -0.6475   -0.6493 H   0  0  0  0  0  0  0  0  0  0  0  0
    0.3935   -0.5138    0.9388 H   0  0  0  0  0  0  0  0  0  0  0  0
    0.3659   -2.9704    1.0398 H   0  0  0  0  0  0  0  0  0  0  0  0
    3.3486    1.5851    0.1248 H   0  0  0  0  0  0  0  0  0  0  0  0
   -0.0138    0.4416   -1.0557 H   0  0  0  0  0  0  0  0  0  0  0  0
   -1.4755   -0.6278   -1.3752 H   0  0  0  0  0  0  0  0  0  0  0  0
   -3.5376   -1.9322   -1.6847 H   0  0  0  0  0  0  0  0  0  0  0  0
   -5.3446    0.1086    1.5975 H   0  0  0  0  0  0  0  0  0  0  0  0
   -3.2881    1.4158    1.9315 H   0  0  0  0  0  0  0  0  0  0  0  0
   -6.7730   -0.2670   -1.4580 H   0  0  0  0  0  0  0  0  0  0  0  0
   -7.9017   -1.4146   -0.6982 H   0  0  0  0  0  0  0  0  0  0  0  0
   -7.1191   -0.1534    0.2842 H   0  0  0  0  0  0  0  0  0  0  0  0
   -4.8131   -3.4237   -1.2300 H   0  0  0  0  0  0  0  0  0  0  0  0
   -6.5550   -3.3244   -1.5825 H   0  0  0  0  0  0  0  0  0  0  0  0
   -5.4264   -2.1767   -2.3423 H   0  0  0  0  0  0  0  0  0  0  0  0
   -6.2583   -1.9037    1.8456 H   0  0  0  0  0  0  0  0  0  0  0  0
   -7.0408   -3.1649    0.8631 H   0  0  0  0  0  0  0  0  0  0  0  0
   -5.2989   -3.2642    1.2156 H   0  0  0  0  0  0  0  0  0  0  0  0
    0.1267    3.9024   -0.2506 O   0  5  0  0  0  0  0  0  0  0  0  0
  1  2  1  0  0  0  0
  1 27  1  0  0  0  0
  1 28  1  0  0  0  0
  1 29  1  0  0  0  0
  2  3  1  0  0  0  0
  2  4  1  0  0  0  0
  2 30  1  0  0  0  0
  3 31  1  0  0  0  0
  3 32  1  0  0  0  0
  3 33  1  0  0  0  0
  4  9  2  0  0  0  0
  4  5  1  0  0  0  0
  5  6  2  0  0  0  0
  5 34  1  0  0  0  0
  6  7  1  0  0  0  0
  6 35  1  0  0  0  0
  7  8  2  0  0  0  0
  7 10  1  0  0  0  0
  8  9  1  0  0  0  0
  8 36  1  0  0  0  0
  9 37  1  0  0  0  0
 10 11  2  0  0  0  0
 10 38  1  0  0  0  0
 11 12  1  0  0  0  0
 11 14  1  0  0  0  0
 12 13  2  0  0  0  0
 12 53  1  0  0  0  0
 14 15  1  0  0  0  0
 14 39  1  0  0  0  0
 15 16  2  0  0  0  0
 15 17  1  0  0  0  0
 17 22  2  0  0  0  0
 17 18  1  0  0  0  0
 18 19  2  0  0  0  0
 18 40  1  0  0  0  0
 19 20  1  0  0  0  0
 19 41  1  0  0  0  0
 20 21  2  0  0  0  0
 20 23  1  0  0  0  0
 21 22  1  0  0  0  0
 21 42  1  0  0  0  0
 22 43  1  0  0  0  0
 23 24  1  0  0  0  0
 23 25  1  0  0  0  0
 23 26  1  0  0  0  0
 24 44  1  0  0  0  0
 24 45  1  0  0  0  0
 24 46  1  0  0  0  0
 25 47  1  0  0  0  0
 25 48  1  0  0  0  0
 25 49  1  0  0  0  0
 26 50  1  0  0  0  0
 26 51  1  0  0  0  0
 26 52  1  0  0  0  0
M  CHG  1  53  -1
M  END
$$$$
ZINC02594707
  -OEChem-08230709463D

 54 56  0     1  0  0  0  0  0999 V2000
   -2.0812    8.4808   -5.4852 C   0  0  0  0  0  0  0  0  0  0  0  0
   -1.5654    8.5350   -4.0458 C   0  0  0  0  0  0  0  0  0  0  0  0
   -1.1326    7.1349   -3.6060 C   0  0  0  0  0  0  0  0  0  0  0  0
   -0.6509    7.1856   -2.2616 O   0  0  0  0  0  0  0  0  0  0  0  0
   -0.2239    6.0170   -1.7148 C   0  0  0  0  0  0  0  0  0  0  0  0
    0.2565    5.9934   -0.4135 C   0  0  0  0  0  0  0  0  0  0  0  0
    0.6904    4.8044    0.1399 C   0  0  0  0  0  0  0  0  0  0  0  0
    0.6466    3.6385   -0.6021 C   0  0  0  0  0  0  0  0  0  0  0  0
    0.1736    3.6604   -1.9011 C   0  0  0  0  0  0  0  0  0  0  0  0
   -0.2672    4.8458   -2.4571 C   0  0  0  0  0  0  0  0  0  0  0  0
    1.1210    2.3429    0.0039 C   0  0  1  0  0  0  0  0  0  0  0  0
    1.4282    2.5305    1.0328 H   0  0  0  0  0  0  0  0  0  0  0  0
   -0.0165    1.3670    0.0096 C   0  0  0  0  0  0  0  0  0  0  0  0
   -1.3688    1.7827    0.0312 C   0  0  0  0  0  0  0  0  0  0  0  0
   -1.7589    2.9377    0.0391 O   0  0  0  0  0  0  0  0  0  0  0  0
   -2.1495    0.6918    0.0330 N   0  0  0  0  0  0  0  0  0  0  0  0
   -3.1194    0.6858    0.0449 H   0  0  0  0  0  0  0  0  0  0  0  0
   -1.3239   -0.4323    0.0208 N   0  0  3  0  0  0  0  0  0  0  0  0
    0.0021   -0.0041    0.0020 C   0  0  0  0  0  0  0  0  0  0  0  0
    1.0055   -0.8749   -0.0196 N   0  0  0  0  0  0  0  0  0  0  0  0
    2.2603   -0.8274   -0.0583 C   0  0  0  0  0  0  0  0  0  0  0  0
    3.1705    0.3371   -0.0142 C   0  0  0  0  0  0  0  0  0  0  0  0
    2.5409    1.7543   -0.9255 S   0  0  0  0  0  0  0  0  0  0  0  0
    2.8707   -2.0215   -0.1542 O   0  0  0  0  0  0  0  0  0  0  0  0
   -1.7742   -1.8263    0.0267 C   0  0  0  0  0  0  0  0  0  0  0  0
   -2.5994   -2.0904    1.2878 C   0  0  0  0  0  0  0  0  0  0  0  0
   -1.7053   -1.9485    2.5213 C   0  0  0  0  0  0  0  0  0  0  0  0
   -2.6350   -2.0895   -1.2104 C   0  0  0  0  0  0  0  0  0  0  0  0
   -1.7766   -1.9468   -2.4688 C   0  0  0  0  0  0  0  0  0  0  0  0
   -2.3895    9.4782   -5.7985 H   0  0  0  0  0  0  0  0  0  0  0  0
   -1.2884    8.1225   -6.1419 H   0  0  0  0  0  0  0  0  0  0  0  0
   -2.9330    7.8030   -5.5407 H   0  0  0  0  0  0  0  0  0  0  0  0
   -2.3582    8.8933   -3.3890 H   0  0  0  0  0  0  0  0  0  0  0  0
   -0.7136    9.2128   -3.9903 H   0  0  0  0  0  0  0  0  0  0  0  0
   -0.3398    6.7767   -4.2628 H   0  0  0  0  0  0  0  0  0  0  0  0
   -1.9844    6.4571   -3.6615 H   0  0  0  0  0  0  0  0  0  0  0  0
    0.2908    6.9038    0.1665 H   0  0  0  0  0  0  0  0  0  0  0  0
    1.0644    4.7855    1.1529 H   0  0  0  0  0  0  0  0  0  0  0  0
    0.1448    2.7493   -2.4803 H   0  0  0  0  0  0  0  0  0  0  0  0
   -0.6411    4.8615   -3.4702 H   0  0  0  0  0  0  0  0  0  0  0  0
    3.3199    0.6267    1.0259 H   0  0  0  0  0  0  0  0  0  0  0  0
    4.1317    0.0475   -0.4389 H   0  0  0  0  0  0  0  0  0  0  0  0
    2.3029   -2.8036   -0.1849 H   0  0  0  0  0  0  0  0  0  0  0  0
   -0.9080   -2.4880    0.0141 H   0  0  0  0  0  0  0  0  0  0  0  0
   -3.4152   -1.3699    1.3456 H   0  0  0  0  0  0  0  0  0  0  0  0
   -3.0083   -3.1000    1.2496 H   0  0  0  0  0  0  0  0  0  0  0  0
   -0.8895   -2.6691    2.4635 H   0  0  0  0  0  0  0  0  0  0  0  0
   -1.2964   -0.9389    2.5595 H   0  0  0  0  0  0  0  0  0  0  0  0
   -2.2932   -2.1366    3.4197 H   0  0  0  0  0  0  0  0  0  0  0  0
   -3.0427   -3.0992   -1.1613 H   0  0  0  0  0  0  0  0  0  0  0  0
   -3.4522   -1.3689   -1.2444 H   0  0  0  0  0  0  0  0  0  0  0  0
   -1.3689   -0.9371   -2.5180 H   0  0  0  0  0  0  0  0  0  0  0  0
   -0.9594   -2.6673   -2.4348 H   0  0  0  0  0  0  0  0  0  0  0  0
   -2.3898   -2.1343   -3.3502 H   0  0  0  0  0  0  0  0  0  0  0  0
  1  2  1  0  0  0  0
  1 30  1  0  0  0  0
  1 31  1  0  0  0  0
  1 32  1  0  0  0  0
  2  3  1  0  0  0  0
  2 33  1  0  0  0  0
  2 34  1  0  0  0  0
  3  4  1  0  0  0  0
  3 35  1  0  0  0  0
  3 36  1  0  0  0  0
  4  5  1  0  0  0  0
  5 10  2  0  0  0  0
  5  6  1  0  0  0  0
  6  7  2  0  0  0  0
  6 37  1  0  0  0  0
  7  8  1  0  0  0  0
  7 38  1  0  0  0  0
  8  9  2  0  0  0  0
  8 11  1  0  0  0  0
  9 10  1  0  0  0  0
  9 39  1  0  0  0  0
 10 40  1  0  0  0  0
 11 12  1  0  0  0  0
 11 23  1  0  0  0  0
 11 13  1  0  0  0  0
 13 19  2  0  0  0  0
 13 14  1  0  0  0  0
 14 15  2  0  0  0  0
 14 16  1  0  0  0  0
 16 17  1  0  0  0  0
 16 18  1  0  0  0  0
 18 19  1  0  0  0  0
 18 25  1  0  0  0  0
 19 20  1  0  0  0  0
 20 21  2  0  0  0  0
 21 22  1  0  0  0  0
 21 24  1  0  0  0  0
 22 23  1  0  0  0  0
 22 41  1  0  0  0  0
 22 42  1  0  0  0  0
 24 43  1  0  0  0  0
 25 26  1  0  0  0  0
 25 28  1  0  0  0  0
 25 44  1  0  0  0  0
 26 27  1  0  0  0  0
 26 45  1  0  0  0  0
 26 46  1  0  0  0  0
 27 47  1  0  0  0  0
 27 48  1  0  0  0  0
 27 49  1  0  0  0  0
 28 29  1  0  0  0  0
 28 50  1  0  0  0  0
 28 51  1  0  0  0  0
 29 52  1  0  0  0  0
 29 53  1  0  0  0  0
 29 54  1  0  0  0  0
M  END
$$$$
ZINC02594708
  -OEChem-08230709463D

 54 56  0     1  0  0  0  0  0999 V2000
   -0.0366    1.0992   -2.4903 C   0  0  0  0  0  0  0  0  0  0  0  0
   -0.7527    1.5927   -1.2315 C   0  0  0  0  0  0  0  0  0  0  0  0
   -0.0127    1.0858    0.0080 C   0  0  0  0  0  0  0  0  0  0  0  0
   -0.6816    1.5467    1.1837 O   0  0  0  0  0  0  0  0  0  0  0  0
   -0.1488    1.1821    2.3796 C   0  0  0  0  0  0  0  0  0  0  0  0
    0.9910    0.3923    2.4206 C   0  0  0  0  0  0  0  0  0  0  0  0
    1.5337    0.0275    3.6375 C   0  0  0  0  0  0  0  0  0  0  0  0
    0.9358    0.4401    4.8140 C   0  0  0  0  0  0  0  0  0  0  0  0
   -0.2035    1.2226    4.7758 C   0  0  0  0  0  0  0  0  0  0  0  0
   -0.7471    1.5945    3.5614 C   0  0  0  0  0  0  0  0  0  0  0  0
    1.5266    0.0359    6.1401 C   0  0  2  0  0  0  0  0  0  0  0  0
    0.9326    0.4800    6.9389 H   0  0  0  0  0  0  0  0  0  0  0  0
    2.9261    0.5654    6.2271 C   0  0  0  0  0  0  0  0  0  0  0  0
    3.3493    1.7050    5.5030 C   0  0  0  0  0  0  0  0  0  0  0  0
    2.6579    2.3659    4.7471 O   0  0  0  0  0  0  0  0  0  0  0  0
    4.6396    1.9355    5.7884 N   0  0  0  0  0  0  0  0  0  0  0  0
    5.1823    2.6551    5.4298 H   0  0  0  0  0  0  0  0  0  0  0  0
    5.0654    0.9600    6.6897 N   0  0  3  0  0  0  0  0  0  0  0  0
    3.9947    0.1083    6.9546 C   0  0  0  0  0  0  0  0  0  0  0  0
    4.1250   -0.9230    7.7822 N   0  0  0  0  0  0  0  0  0  0  0  0
    3.3984   -1.8559    8.2064 C   0  0  0  0  0  0  0  0  0  0  0  0
    1.9646   -2.1288    7.9694 C   0  0  0  0  0  0  0  0  0  0  0  0
    1.4470   -1.7525    6.2886 S   0  0  0  0  0  0  0  0  0  0  0  0
    4.0218   -2.7452    8.9991 O   0  0  0  0  0  0  0  0  0  0  0  0
    6.4100    0.8492    7.2607 C   0  0  0  0  0  0  0  0  0  0  0  0
    7.4287    0.6636    6.1343 C   0  0  0  0  0  0  0  0  0  0  0  0
    7.1755   -0.6723    5.4327 C   0  0  0  0  0  0  0  0  0  0  0  0
    6.7393    2.1233    8.0412 C   0  0  0  0  0  0  0  0  0  0  0  0
    5.7984    2.2434    9.2417 C   0  0  0  0  0  0  0  0  0  0  0  0
   -0.0218    0.0093   -2.4963 H   0  0  0  0  0  0  0  0  0  0  0  0
   -0.5637    1.4603   -3.3734 H   0  0  0  0  0  0  0  0  0  0  0  0
    0.9860    1.4765   -2.4981 H   0  0  0  0  0  0  0  0  0  0  0  0
   -1.7753    1.2154   -1.2238 H   0  0  0  0  0  0  0  0  0  0  0  0
   -0.7675    2.6825   -1.2255 H   0  0  0  0  0  0  0  0  0  0  0  0
    0.0021   -0.0041    0.0020 H   0  0  0  0  0  0  0  0  0  0  0  0
    1.0099    1.4631    0.0003 H   0  0  0  0  0  0  0  0  0  0  0  0
    1.4560    0.0663    1.5020 H   0  0  0  0  0  0  0  0  0  0  0  0
    2.4231   -0.5843    3.6700 H   0  0  0  0  0  0  0  0  0  0  0  0
   -0.6691    1.5431    5.6961 H   0  0  0  0  0  0  0  0  0  0  0  0
   -1.6372    2.2054    3.5321 H   0  0  0  0  0  0  0  0  0  0  0  0
    1.7701   -3.1825    8.1692 H   0  0  0  0  0  0  0  0  0  0  0  0
    1.3739   -1.5263    8.6594 H   0  0  0  0  0  0  0  0  0  0  0  0
    4.9610   -2.5950    9.1736 H   0  0  0  0  0  0  0  0  0  0  0  0
    6.4502   -0.0087    7.9319 H   0  0  0  0  0  0  0  0  0  0  0  0
    7.3274    1.4765    5.4152 H   0  0  0  0  0  0  0  0  0  0  0  0
    8.4360    0.6701    6.5506 H   0  0  0  0  0  0  0  0  0  0  0  0
    7.9012   -0.8046    4.6303 H   0  0  0  0  0  0  0  0  0  0  0  0
    7.2768   -1.4853    6.1518 H   0  0  0  0  0  0  0  0  0  0  0  0
    6.1682   -0.6789    5.0164 H   0  0  0  0  0  0  0  0  0  0  0  0
    7.7707    2.0789    8.3909 H   0  0  0  0  0  0  0  0  0  0  0  0
    6.6127    2.9899    7.3922 H   0  0  0  0  0  0  0  0  0  0  0  0
    6.0330    3.1511    9.7977 H   0  0  0  0  0  0  0  0  0  0  0  0
    4.7670    2.2879    8.8920 H   0  0  0  0  0  0  0  0  0  0  0  0
    5.9250    1.3769    9.8906 H   0  0  0  0  0  0  0  0  0  0  0  0
  1  2  1  0  0  0  0
  1 30  1  0  0  0  0
  1 31  1  0  0  0  0
  1 32  1  0  0  0  0
  2  3  1  0  0  0  0
  2 33  1  0  0  0  0
  2 34  1  0  0  0  0
  3  4  1  0  0  0  0
  3 35  1  0  0  0  0
  3 36  1  0  0  0  0
  4  5  1  0  0  0  0
  5 10  2  0  0  0  0
  5  6  1  0  0  0  0
  6  7  2  0  0  0  0
  6 37  1  0  0  0  0
  7  8  1  0  0  0  0
  7 38  1  0  0  0  0
  8  9  2  0  0  0  0
  8 11  1  0  0  0  0
  9 10  1  0  0  0  0
  9 39  1  0  0  0  0
 10 40  1  0  0  0  0
 11 12  1  0  0  0  0
 11 23  1  0  0  0  0
 11 13  1  0  0  0  0
 13 19  2  0  0  0  0
 13 14  1  0  0  0  0
 14 15  2  0  0  0  0
 14 16  1  0  0  0  0
 16 17  1  0  0  0  0
 16 18  1  0  0  0  0
 18 19  1  0  0  0  0
 18 25  1  0  0  0  0
 19 20  1  0  0  0  0
 20 21  2  0  0  0  0
 21 22  1  0  0  0  0
 21 24  1  0  0  0  0
 22 23  1  0  0  0  0
 22 41  1  0  0  0  0
 22 42  1  0  0  0  0
 24 43  1  0  0  0  0
 25 26  1  0  0  0  0
 25 28  1  0  0  0  0
 25 44  1  0  0  0  0
 26 27  1  0  0  0  0
 26 45  1  0  0  0  0
 26 46  1  0  0  0  0
 27 47  1  0  0  0  0
 27 48  1  0  0  0  0
 27 49  1  0  0  0  0
 28 29  1  0  0  0  0
 28 50  1  0  0  0  0
 28 51  1  0  0  0  0
 29 52  1  0  0  0  0
 29 53  1  0  0  0  0
 29 54  1  0  0  0  0
M  END
$$$$
ZINC02594750
  -OEChem-08230709463D

 52 54  0     1  0  0  0  0  0999 V2000
    0.1082    0.2949   -0.1908 C   0  0  0  0  0  0  0  0  0  0  0  0
    0.3927    1.4601   -1.1406 C   0  0  0  0  0  0  0  0  0  0  0  0
    0.4363    2.7471   -0.3578 C   0  0  0  0  0  0  0  0  0  0  0  0
   -0.6925    3.5379   -0.2641 C   0  0  0  0  0  0  0  0  0  0  0  0
   -0.6548    4.7161    0.4584 C   0  0  0  0  0  0  0  0  0  0  0  0
    0.5152    5.1122    1.0805 C   0  0  0  0  0  0  0  0  0  0  0  0
    1.6486    4.3290    0.9858 C   0  0  0  0  0  0  0  0  0  0  0  0
    1.6126    3.1422    0.2652 C   0  0  0  0  0  0  0  0  0  0  0  0
    2.7591    2.3461    0.1677 N   0  0  0  0  0  0  0  0  0  0  0  0
    3.9803    2.9100    0.2531 C   0  0  0  0  0  0  0  0  0  0  0  0
    4.0860    4.0942    0.4928 O   0  0  0  0  0  0  0  0  0  0  0  0
    5.2144    2.0690    0.0508 C   0  0  1  0  0  0  0  0  0  0  0  0
    4.9907    1.2446   -0.6263 H   0  0  0  0  0  0  0  0  0  0  0  0
    6.3350    2.9294   -0.5358 C   0  0  0  0  0  0  0  0  0  0  0  0
    7.6375    2.2019   -0.5699 C   0  0  0  0  0  0  0  0  0  0  0  0
    8.0039    1.2051    0.1459 N   0  0  0  0  0  0  0  0  0  0  0  0
    7.2323    0.5847    1.0746 C   0  0  0  0  0  0  0  0  0  0  0  0
    7.5569   -0.6048    1.5364 N   0  0  0  0  0  0  0  0  0  0  0  0
    6.8385   -1.1610    2.5594 C   0  0  0  0  0  0  0  0  0  0  0  0
    6.5933   -0.4295    3.7224 C   0  0  0  0  0  0  0  0  0  0  0  0
    5.8652   -0.9983    4.7533 C   0  0  0  0  0  0  0  0  0  0  0  0
    5.3796   -2.2930    4.6320 C   0  0  0  0  0  0  0  0  0  0  0  0
    5.6188   -3.0231    3.4816 C   0  0  0  0  0  0  0  0  0  0  0  0
    6.3407   -2.4651    2.4418 C   0  0  0  0  0  0  0  0  0  0  0  0
    6.5705   -3.1829    1.3093 O   0  0  0  0  0  0  0  0  0  0  0  0
    6.0327   -4.5059    1.2594 C   0  0  0  0  0  0  0  0  0  0  0  0
    5.6256   -0.2874    5.8875 O   0  0  0  0  0  0  0  0  0  0  0  0
    4.8678   -0.9351    6.9113 C   0  0  0  0  0  0  0  0  0  0  0  0
    5.7797    1.4152    1.6491 S   0  0  0  0  0  0  0  0  0  0  0  0
    8.5388    2.6489   -1.4631 O   0  0  0  0  0  0  0  0  0  0  0  0
   -0.8514    0.4533    0.3014 H   0  0  0  0  0  0  0  0  0  0  0  0
    0.0767   -0.6360   -0.7570 H   0  0  0  0  0  0  0  0  0  0  0  0
    0.8964    0.2371    0.5598 H   0  0  0  0  0  0  0  0  0  0  0  0
   -0.3956    1.5179   -1.8912 H   0  0  0  0  0  0  0  0  0  0  0  0
    1.3522    1.3016   -1.6329 H   0  0  0  0  0  0  0  0  0  0  0  0
   -1.6064    3.2336   -0.7525 H   0  0  0  0  0  0  0  0  0  0  0  0
   -1.5397    5.3308    0.5333 H   0  0  0  0  0  0  0  0  0  0  0  0
    0.5425    6.0352    1.6406 H   0  0  0  0  0  0  0  0  0  0  0  0
    2.5621    4.6392    1.4712 H   0  0  0  0  0  0  0  0  0  0  0  0
    2.6751    1.3884    0.0387 H   0  0  0  0  0  0  0  0  0  0  0  0
    6.0645    3.2201   -1.5509 H   0  0  0  0  0  0  0  0  0  0  0  0
    6.4466    3.8281    0.0708 H   0  0  0  0  0  0  0  0  0  0  0  0
    6.9710    0.5778    3.8180 H   0  0  0  0  0  0  0  0  0  0  0  0
    4.8121   -2.7321    5.4391 H   0  0  0  0  0  0  0  0  0  0  0  0
    5.2377   -4.0298    3.3935 H   0  0  0  0  0  0  0  0  0  0  0  0
    4.9486   -4.4616    1.3632 H   0  0  0  0  0  0  0  0  0  0  0  0
    6.2879   -4.9660    0.3048 H   0  0  0  0  0  0  0  0  0  0  0  0
    6.4516   -5.0992    2.0722 H   0  0  0  0  0  0  0  0  0  0  0  0
    4.7496   -0.2594    7.7584 H   0  0  0  0  0  0  0  0  0  0  0  0
    3.8861   -1.2042    6.5214 H   0  0  0  0  0  0  0  0  0  0  0  0
    5.3896   -1.8357    7.2349 H   0  0  0  0  0  0  0  0  0  0  0  0
    9.3882    2.1880   -1.4978 H   0  0  0  0  0  0  0  0  0  0  0  0
  1  2  1  0  0  0  0
  1 31  1  0  0  0  0
  1 32  1  0  0  0  0
  1 33  1  0  0  0  0
  2  3  1  0  0  0  0
  2 34  1  0  0  0  0
  2 35  1  0  0  0  0
  3  8  2  0  0  0  0
  3  4  1  0  0  0  0
  4  5  2  0  0  0  0
  4 36  1  0  0  0  0
  5  6  1  0  0  0  0
  5 37  1  0  0  0  0
  6  7  2  0  0  0  0
  6 38  1  0  0  0  0
  7  8  1  0  0  0  0
  7 39  1  0  0  0  0
  8  9  1  0  0  0  0
  9 10  1  0  0  0  0
  9 40  1  0  0  0  0
 10 11  2  0  0  0  0
 10 12  1  0  0  0  0
 12 13  1  0  0  0  0
 12 29  1  0  0  0  0
 12 14  1  0  0  0  0
 14 15  1  0  0  0  0
 14 41  1  0  0  0  0
 14 42  1  0  0  0  0
 15 16  2  0  0  0  0
 15 30  1  0  0  0  0
 16 17  1  0  0  0  0
 17 18  2  0  0  0  0
 17 29  1  0  0  0  0
 18 19  1  0  0  0  0
 19 24  2  0  0  0  0
 19 20  1  0  0  0  0
 20 21  2  0  0  0  0
 20 43  1  0  0  0  0
 21 22  1  0  0  0  0
 21 27  1  0  0  0  0
 22 23  2  0  0  0  0
 22 44  1  0  0  0  0
 23 24  1  0  0  0  0
 23 45  1  0  0  0  0
 24 25  1  0  0  0  0
 25 26  1  0  0  0  0
 26 46  1  0  0  0  0
 26 47  1  0  0  0  0
 26 48  1  0  0  0  0
 27 28  1  0  0  0  0
 28 49  1  0  0  0  0
 28 50  1  0  0  0  0
 28 51  1  0  0  0  0
 30 52  1  0  0  0  0
M  END
$$$$
ZINC02604382
  -OEChem-08230709463D

 58 61  0     1  0  0  0  0  0999 V2000
    1.4448   -2.2375   -6.4250 C   0  0  0  0  0  0  0  0  0  0  0  0
    1.2113   -2.1525   -4.9153 C   0  0  0  0  0  0  0  0  0  0  0  0
    2.5537   -1.9871   -4.2001 C   0  0  0  0  0  0  0  0  0  0  0  0
    2.3357   -1.9077   -2.7901 O   0  0  0  0  0  0  0  0  0  0  0  0
    3.4337   -1.7583   -2.0034 C   0  0  0  0  0  0  0  0  0  0  0  0
    4.6949   -1.6843   -2.5772 C   0  0  0  0  0  0  0  0  0  0  0  0
    5.8098   -1.5382   -1.7751 C   0  0  0  0  0  0  0  0  0  0  0  0
    5.6694   -1.4599   -0.4016 C   0  0  0  0  0  0  0  0  0  0  0  0
    4.4135   -1.5282    0.1722 C   0  0  0  0  0  0  0  0  0  0  0  0
    3.2951   -1.6743   -0.6258 C   0  0  0  0  0  0  0  0  0  0  0  0
    1.9264   -1.7486    0.0004 C   0  0  1  0  0  0  0  0  0  0  0  0
    2.0318   -2.0844    1.0320 H   0  0  0  0  0  0  0  0  0  0  0  0
    1.3183   -0.3787   -0.0025 C   0  0  0  0  0  0  0  0  0  0  0  0
    2.0984    0.7966   -0.0075 C   0  0  0  0  0  0  0  0  0  0  0  0
    1.3015    1.8310   -0.0005 N   0  0  0  0  0  0  0  0  0  0  0  0
   -0.0166    1.3754    0.0096 N   0  0  0  0  0  0  0  0  0  0  0  0
    0.0021   -0.0041    0.0020 C   0  0  0  0  0  0  0  0  0  0  0  0
   -1.1351   -0.7198   -0.0092 N   0  0  0  0  0  0  0  0  0  0  0  0
   -1.4460   -1.9330   -0.0204 C   0  0  0  0  0  0  0  0  0  0  0  0
   -0.5847   -3.1327    0.0320 C   0  0  0  0  0  0  0  0  0  0  0  0
    0.9408   -2.9490   -0.9019 S   0  0  0  0  0  0  0  0  0  0  0  0
   -2.7696   -2.1829   -0.0909 O   0  0  0  0  0  0  0  0  0  0  0  0
   -1.2155    2.2173    0.0201 C   0  0  0  0  0  0  0  0  0  0  0  0
   -1.2485    3.0558   -1.2741 C   0  0  0  0  0  0  0  0  0  0  0  0
   -2.6626    3.5111   -1.5128 C   0  0  0  0  0  0  0  0  0  0  0  0
   -2.9355    4.9138   -0.9369 C   0  0  0  0  0  0  0  0  0  0  0  0
   -2.3043    5.1221    0.4530 C   0  0  0  0  0  0  0  0  0  0  0  0
   -2.4637    3.9198    1.3438 C   0  0  0  0  0  0  0  0  0  0  0  0
   -1.1996    3.0451    1.2171 C   0  0  0  0  0  0  0  0  0  0  0  0
    3.4574    0.8445   -0.0183 O   0  0  0  0  0  0  0  0  0  0  0  0
    0.4885   -2.3554   -6.9345 H   0  0  0  0  0  0  0  0  0  0  0  0
    1.9299   -1.3243   -6.7696 H   0  0  0  0  0  0  0  0  0  0  0  0
    2.0824   -3.0934   -6.6464 H   0  0  0  0  0  0  0  0  0  0  0  0
    0.7262   -3.0658   -4.5707 H   0  0  0  0  0  0  0  0  0  0  0  0
    0.5738   -1.2966   -4.6938 H   0  0  0  0  0  0  0  0  0  0  0  0
    3.0389   -1.0738   -4.5447 H   0  0  0  0  0  0  0  0  0  0  0  0
    3.1913   -2.8430   -4.4215 H   0  0  0  0  0  0  0  0  0  0  0  0
    4.8050   -1.7449   -3.6499 H   0  0  0  0  0  0  0  0  0  0  0  0
    6.7920   -1.4846   -2.2210 H   0  0  0  0  0  0  0  0  0  0  0  0
    6.5424   -1.3457    0.2239 H   0  0  0  0  0  0  0  0  0  0  0  0
    4.3065   -1.4668    1.2451 H   0  0  0  0  0  0  0  0  0  0  0  0
   -1.1404   -3.9808   -0.3680 H   0  0  0  0  0  0  0  0  0  0  0  0
   -0.3354   -3.3398    1.0728 H   0  0  0  0  0  0  0  0  0  0  0  0
   -3.3595   -1.4175   -0.1265 H   0  0  0  0  0  0  0  0  0  0  0  0
   -2.0965    1.5760    0.0461 H   0  0  0  0  0  0  0  0  0  0  0  0
   -0.5979    3.9235   -1.1649 H   0  0  0  0  0  0  0  0  0  0  0  0
   -0.9133    2.4467   -2.1136 H   0  0  0  0  0  0  0  0  0  0  0  0
   -3.3454    2.8000   -1.0478 H   0  0  0  0  0  0  0  0  0  0  0  0
   -2.8495    3.5283   -2.5866 H   0  0  0  0  0  0  0  0  0  0  0  0
   -4.0131    5.0582   -0.8588 H   0  0  0  0  0  0  0  0  0  0  0  0
   -2.5304    5.6584   -1.6221 H   0  0  0  0  0  0  0  0  0  0  0  0
   -2.7778    5.9800    0.9304 H   0  0  0  0  0  0  0  0  0  0  0  0
   -1.2417    5.3314    0.3300 H   0  0  0  0  0  0  0  0  0  0  0  0
   -3.3377    3.3474    1.0333 H   0  0  0  0  0  0  0  0  0  0  0  0
   -2.5848    4.2406    2.3785 H   0  0  0  0  0  0  0  0  0  0  0  0
   -1.1282    2.3991    2.0921 H   0  0  0  0  0  0  0  0  0  0  0  0
   -0.3246    3.6943    1.1857 H   0  0  0  0  0  0  0  0  0  0  0  0
    3.8434    0.8593   -0.9047 H   0  0  0  0  0  0  0  0  0  0  0  0
  1  2  1  0  0  0  0
  1 31  1  0  0  0  0
  1 32  1  0  0  0  0
  1 33  1  0  0  0  0
  2  3  1  0  0  0  0
  2 34  1  0  0  0  0
  2 35  1  0  0  0  0
  3  4  1  0  0  0  0
  3 36  1  0  0  0  0
  3 37  1  0  0  0  0
  4  5  1  0  0  0  0
  5 10  2  0  0  0  0
  5  6  1  0  0  0  0
  6  7  2  0  0  0  0
  6 38  1  0  0  0  0
  7  8  1  0  0  0  0
  7 39  1  0  0  0  0
  8  9  2  0  0  0  0
  8 40  1  0  0  0  0
  9 10  1  0  0  0  0
  9 41  1  0  0  0  0
 10 11  1  0  0  0  0
 11 12  1  0  0  0  0
 11 21  1  0  0  0  0
 11 13  1  0  0  0  0
 13 17  2  0  0  0  0
 13 14  1  0  0  0  0
 14 15  2  0  0  0  0
 14 30  1  0  0  0  0
 15 16  1  0  0  0  0
 16 17  1  0  0  0  0
 16 23  1  0  0  0  0
 17 18  1  0  0  0  0
 18 19  2  0  0  0  0
 19 20  1  0  0  0  0
 19 22  1  0  0  0  0
 20 21  1  0  0  0  0
 20 42  1  0  0  0  0
 20 43  1  0  0  0  0
 22 44  1  0  0  0  0
 23 29  1  0  0  0  0
 23 24  1  0  0  0  0
 23 45  1  0  0  0  0
 24 25  1  0  0  0  0
 24 46  1  0  0  0  0
 24 47  1  0  0  0  0
 25 26  1  0  0  0  0
 25 48  1  0  0  0  0
 25 49  1  0  0  0  0
 26 27  1  0  0  0  0
 26 50  1  0  0  0  0
 26 51  1  0  0  0  0
 27 28  1  0  0  0  0
 27 52  1  0  0  0  0
 27 53  1  0  0  0  0
 28 29  1  0  0  0  0
 28 54  1  0  0  0  0
 28 55  1  0  0  0  0
 29 56  1  0  0  0  0
 29 57  1  0  0  0  0
 30 58  1  0  0  0  0
M  END
$$$$
ZINC02604383
  -OEChem-08230709463D

 58 61  0     1  0  0  0  0  0999 V2000
   -0.7542    3.4480    1.2771 C   0  0  0  0  0  0  0  0  0  0  0  0
   -0.7334    1.9182    1.2687 C   0  0  0  0  0  0  0  0  0  0  0  0
   -0.0173    1.4248    0.0099 C   0  0  0  0  0  0  0  0  0  0  0  0
    0.0021   -0.0041    0.0020 O   0  0  0  0  0  0  0  0  0  0  0  0
    0.6058   -0.6071   -1.0557 C   0  0  0  0  0  0  0  0  0  0  0  0
    1.1681    0.1607   -2.0654 C   0  0  0  0  0  0  0  0  0  0  0  0
    1.7810   -0.4546   -3.1394 C   0  0  0  0  0  0  0  0  0  0  0  0
    1.8350   -1.8347   -3.2086 C   0  0  0  0  0  0  0  0  0  0  0  0
    1.2752   -2.6019   -2.2041 C   0  0  0  0  0  0  0  0  0  0  0  0
    0.6659   -1.9912   -1.1249 C   0  0  0  0  0  0  0  0  0  0  0  0
    0.0617   -2.8281   -0.0269 C   0  0  2  0  0  0  0  0  0  0  0  0
   -0.8486   -2.3423    0.3243 H   0  0  0  0  0  0  0  0  0  0  0  0
    1.0341   -2.9081    1.1107 C   0  0  0  0  0  0  0  0  0  0  0  0
    2.0070   -1.9147    1.3482 C   0  0  0  0  0  0  0  0  0  0  0  0
    2.6992   -2.2472    2.4043 N   0  0  0  0  0  0  0  0  0  0  0  0
    2.2090   -3.4580    2.8929 N   0  0  0  0  0  0  0  0  0  0  0  0
    1.1765   -3.8688    2.0752 C   0  0  0  0  0  0  0  0  0  0  0  0
    0.5223   -5.0210    2.2979 N   0  0  0  0  0  0  0  0  0  0  0  0
   -0.4181   -5.6517    1.7626 C   0  0  0  0  0  0  0  0  0  0  0  0
   -1.2667   -5.2885    0.6082 C   0  0  0  0  0  0  0  0  0  0  0  0
   -0.3627   -4.4408   -0.6945 S   0  0  0  0  0  0  0  0  0  0  0  0
   -0.6990   -6.8449    2.3252 O   0  0  0  0  0  0  0  0  0  0  0  0
    2.7054   -4.1715    4.0722 C   0  0  0  0  0  0  0  0  0  0  0  0
    2.5135   -3.2775    5.3144 C   0  0  0  0  0  0  0  0  0  0  0  0
    2.5282   -4.1527    6.5393 C   0  0  0  0  0  0  0  0  0  0  0  0
    3.9270   -4.2455    7.1782 C   0  0  0  0  0  0  0  0  0  0  0  0
    5.0516   -4.3924    6.1354 C   0  0  0  0  0  0  0  0  0  0  0  0
    4.6877   -5.3416    5.0260 C   0  0  0  0  0  0  0  0  0  0  0  0
    4.1003   -4.5259    3.8562 C   0  0  0  0  0  0  0  0  0  0  0  0
    2.1940   -0.7950    0.5996 O   0  0  0  0  0  0  0  0  0  0  0  0
    0.2684    3.8253    1.2694 H   0  0  0  0  0  0  0  0  0  0  0  0
   -1.2814    3.8091    0.3940 H   0  0  0  0  0  0  0  0  0  0  0  0
   -1.2644    3.7996    2.1739 H   0  0  0  0  0  0  0  0  0  0  0  0
   -1.7560    1.5409    1.2764 H   0  0  0  0  0  0  0  0  0  0  0  0
   -0.2063    1.5571    2.1517 H   0  0  0  0  0  0  0  0  0  0  0  0
    1.0053    1.8021    0.0021 H   0  0  0  0  0  0  0  0  0  0  0  0
   -0.5445    1.7859   -0.8732 H   0  0  0  0  0  0  0  0  0  0  0  0
    1.1261    1.2386   -2.0118 H   0  0  0  0  0  0  0  0  0  0  0  0
    2.2188    0.1426   -3.9256 H   0  0  0  0  0  0  0  0  0  0  0  0
    2.3151   -2.3139   -4.0491 H   0  0  0  0  0  0  0  0  0  0  0  0
    1.3183   -3.6796   -2.2607 H   0  0  0  0  0  0  0  0  0  0  0  0
   -2.0714   -4.6403    0.9552 H   0  0  0  0  0  0  0  0  0  0  0  0
   -1.7034   -6.1984    0.1966 H   0  0  0  0  0  0  0  0  0  0  0  0
   -0.1604   -7.1106    3.0831 H   0  0  0  0  0  0  0  0  0  0  0  0
    2.1251   -5.0851    4.2018 H   0  0  0  0  0  0  0  0  0  0  0  0
    3.3243   -2.5512    5.3715 H   0  0  0  0  0  0  0  0  0  0  0  0
    1.5573   -2.7585    5.2478 H   0  0  0  0  0  0  0  0  0  0  0  0
    2.2000   -5.1544    6.2619 H   0  0  0  0  0  0  0  0  0  0  0  0
    1.8318   -3.7460    7.2726 H   0  0  0  0  0  0  0  0  0  0  0  0
    3.9521   -5.1068    7.8459 H   0  0  0  0  0  0  0  0  0  0  0  0
    4.1053   -3.3430    7.7628 H   0  0  0  0  0  0  0  0  0  0  0  0
    5.9488   -4.7596    6.6337 H   0  0  0  0  0  0  0  0  0  0  0  0
    5.2628   -3.4129    5.7064 H   0  0  0  0  0  0  0  0  0  0  0  0
    3.9456   -6.0555    5.3836 H   0  0  0  0  0  0  0  0  0  0  0  0
    5.5789   -5.8724    4.6912 H   0  0  0  0  0  0  0  0  0  0  0  0
    4.1776   -5.1142    2.9418 H   0  0  0  0  0  0  0  0  0  0  0  0
    4.6824   -3.6120    3.7377 H   0  0  0  0  0  0  0  0  0  0  0  0
    1.6763   -0.0334    0.8948 H   0  0  0  0  0  0  0  0  0  0  0  0
  1  2  1  0  0  0  0
  1 31  1  0  0  0  0
  1 32  1  0  0  0  0
  1 33  1  0  0  0  0
  2  3  1  0  0  0  0
  2 34  1  0  0  0  0
  2 35  1  0  0  0  0
  3  4  1  0  0  0  0
  3 36  1  0  0  0  0
  3 37  1  0  0  0  0
  4  5  1  0  0  0  0
  5 10  2  0  0  0  0
  5  6  1  0  0  0  0
  6  7  2  0  0  0  0
  6 38  1  0  0  0  0
  7  8  1  0  0  0  0
  7 39  1  0  0  0  0
  8  9  2  0  0  0  0
  8 40  1  0  0  0  0
  9 10  1  0  0  0  0
  9 41  1  0  0  0  0
 10 11  1  0  0  0  0
 11 12  1  0  0  0  0
 11 21  1  0  0  0  0
 11 13  1  0  0  0  0
 13 17  2  0  0  0  0
 13 14  1  0  0  0  0
 14 15  2  0  0  0  0
 14 30  1  0  0  0  0
 15 16  1  0  0  0  0
 16 17  1  0  0  0  0
 16 23  1  0  0  0  0
 17 18  1  0  0  0  0
 18 19  2  0  0  0  0
 19 20  1  0  0  0  0
 19 22  1  0  0  0  0
 20 21  1  0  0  0  0
 20 42  1  0  0  0  0
 20 43  1  0  0  0  0
 22 44  1  0  0  0  0
 23 29  1  0  0  0  0
 23 24  1  0  0  0  0
 23 45  1  0  0  0  0
 24 25  1  0  0  0  0
 24 46  1  0  0  0  0
 24 47  1  0  0  0  0
 25 26  1  0  0  0  0
 25 48  1  0  0  0  0
 25 49  1  0  0  0  0
 26 27  1  0  0  0  0
 26 50  1  0  0  0  0
 26 51  1  0  0  0  0
 27 28  1  0  0  0  0
 27 52  1  0  0  0  0
 27 53  1  0  0  0  0
 28 29  1  0  0  0  0
 28 54  1  0  0  0  0
 28 55  1  0  0  0  0
 29 56  1  0  0  0  0
 29 57  1  0  0  0  0
 30 58  1  0  0  0  0
M  END
$$$$
ZINC02638011
  -OEChem-08230709463D

 52 55  0     0  0  0  0  0  0999 V2000
    4.2860    1.8943    0.2419 C   0  0  0  0  0  0  0  0  0  0  0  0
    3.8155    3.3256    0.2077 C   0  0  0  0  0  0  0  0  0  0  0  0
    2.4737    3.7528    0.2862 C   0  0  0  0  0  0  0  0  0  0  0  0
    1.2373    3.0766    0.4096 C   0  0  0  0  0  0  0  0  0  0  0  0
    0.0773    3.8425    0.4527 C   0  0  0  0  0  0  0  0  0  0  0  0
    0.1750    5.2355    0.3835 C   0  0  0  0  0  0  0  0  0  0  0  0
    1.3457    5.8397    0.2690 N   0  0  0  0  0  0  0  0  0  0  0  0
    2.4817    5.1611    0.2183 C   0  0  0  0  0  0  0  0  0  0  0  0
    3.7963    5.5343    0.1036 N   0  0  0  0  0  0  0  0  0  0  0  0
    4.5804    4.3747    0.1012 N   0  0  0  0  0  0  0  0  0  0  0  0
    4.2937    6.9084    0.0009 C   0  0  0  0  0  0  0  0  0  0  0  0
    4.5727    7.4560    1.4020 C   0  0  0  0  0  0  0  0  0  0  0  0
    5.0725    8.8366    1.2988 C   0  0  0  0  0  0  0  0  0  0  0  0
    5.4582    9.9022    1.2191 N   0  0  0  0  0  0  0  0  0  0  0  0
   -1.0613    6.0528    0.4343 C   0  0  0  0  0  0  0  0  0  0  0  0
   -2.3050    5.4338    0.5490 C   0  0  0  0  0  0  0  0  0  0  0  0
   -3.4518    6.1998    0.6011 C   0  0  0  0  0  0  0  0  0  0  0  0
   -3.3696    7.5787    0.5283 C   0  0  0  0  0  0  0  0  0  0  0  0
   -2.1385    8.1982    0.4092 C   0  0  0  0  0  0  0  0  0  0  0  0
   -0.9846    7.4427    0.3618 C   0  0  0  0  0  0  0  0  0  0  0  0
   -4.6260    8.4093    0.5795 C   0  0  0  0  0  0  0  0  0  0  0  0
   -5.3557    8.1495    1.8989 C   0  0  0  0  0  0  0  0  0  0  0  0
   -6.6313    8.9927    1.9508 C   0  0  0  0  0  0  0  0  0  0  0  0
   -7.5416    8.6131    0.7812 C   0  0  0  0  0  0  0  0  0  0  0  0
   -6.8119    8.8729   -0.5382 C   0  0  0  0  0  0  0  0  0  0  0  0
   -5.5363    8.0296   -0.5902 C   0  0  0  0  0  0  0  0  0  0  0  0
    1.1798    1.6019    0.4844 C   0  0  0  0  0  0  0  0  0  0  0  0
    2.1877    0.9455    0.3153 O   0  0  0  0  0  0  0  0  0  0  0  0
    4.0603    1.4148   -0.7106 H   0  0  0  0  0  0  0  0  0  0  0  0
    5.3618    1.8695    0.4153 H   0  0  0  0  0  0  0  0  0  0  0  0
    3.7761    1.3633    1.0457 H   0  0  0  0  0  0  0  0  0  0  0  0
   -0.8881    3.3666    0.5419 H   0  0  0  0  0  0  0  0  0  0  0  0
    5.2140    6.9190   -0.5832 H   0  0  0  0  0  0  0  0  0  0  0  0
    3.5449    7.5302   -0.4898 H   0  0  0  0  0  0  0  0  0  0  0  0
    3.6524    7.4454    1.9861 H   0  0  0  0  0  0  0  0  0  0  0  0
    5.3215    6.8342    1.8927 H   0  0  0  0  0  0  0  0  0  0  0  0
   -2.3707    4.3570    0.6010 H   0  0  0  0  0  0  0  0  0  0  0  0
   -4.4156    5.7215    0.6944 H   0  0  0  0  0  0  0  0  0  0  0  0
   -2.0803    9.2752    0.3527 H   0  0  0  0  0  0  0  0  0  0  0  0
   -0.0239    7.9275    0.2692 H   0  0  0  0  0  0  0  0  0  0  0  0
   -4.3663    9.4656    0.5098 H   0  0  0  0  0  0  0  0  0  0  0  0
   -5.6154    7.0932    1.9686 H   0  0  0  0  0  0  0  0  0  0  0  0
   -4.7072    8.4200    2.7322 H   0  0  0  0  0  0  0  0  0  0  0  0
   -6.3716   10.0491    1.8811 H   0  0  0  0  0  0  0  0  0  0  0  0
   -7.1512    8.8076    2.8908 H   0  0  0  0  0  0  0  0  0  0  0  0
   -8.4504    9.2138    0.8182 H   0  0  0  0  0  0  0  0  0  0  0  0
   -7.8013    7.5567    0.8509 H   0  0  0  0  0  0  0  0  0  0  0  0
   -6.5522    9.9292   -0.6079 H   0  0  0  0  0  0  0  0  0  0  0  0
   -7.4604    8.6024   -1.3715 H   0  0  0  0  0  0  0  0  0  0  0  0
   -5.0164    8.2147   -1.5301 H   0  0  0  0  0  0  0  0  0  0  0  0
   -5.7960    6.9733   -0.5205 H   0  0  0  0  0  0  0  0  0  0  0  0
    0.0094    0.9856    0.7401 O   0  5  0  0  0  0  0  0  0  0  0  0
  1  2  1  0  0  0  0
  1 29  1  0  0  0  0
  1 30  1  0  0  0  0
  1 31  1  0  0  0  0
  2 10  2  0  0  0  0
  2  3  1  0  0  0  0
  3  8  2  0  0  0  0
  3  4  1  0  0  0  0
  4  5  2  0  0  0  0
  4 27  1  0  0  0  0
  5  6  1  0  0  0  0
  5 32  1  0  0  0  0
  6  7  2  0  0  0  0
  6 15  1  0  0  0  0
  7  8  1  0  0  0  0
  8  9  1  0  0  0  0
  9 10  1  0  0  0  0
  9 11  1  0  0  0  0
 11 12  1  0  0  0  0
 11 33  1  0  0  0  0
 11 34  1  0  0  0  0
 12 13  1  0  0  0  0
 12 35  1  0  0  0  0
 12 36  1  0  0  0  0
 13 14  3  0  0  0  0
 15 20  2  0  0  0  0
 15 16  1  0  0  0  0
 16 17  2  0  0  0  0
 16 37  1  0  0  0  0
 17 18  1  0  0  0  0
 17 38  1  0  0  0  0
 18 19  2  0  0  0  0
 18 21  1  0  0  0  0
 19 20  1  0  0  0  0
 19 39  1  0  0  0  0
 20 40  1  0  0  0  0
 21 26  1  0  0  0  0
 21 22  1  0  0  0  0
 21 41  1  0  0  0  0
 22 23  1  0  0  0  0
 22 42  1  0  0  0  0
 22 43  1  0  0  0  0
 23 24  1  0  0  0  0
 23 44  1  0  0  0  0
 23 45  1  0  0  0  0
 24 25  1  0  0  0  0
 24 46  1  0  0  0  0
 24 47  1  0  0  0  0
 25 26  1  0  0  0  0
 25 48  1  0  0  0  0
 25 49  1  0  0  0  0
 26 50  1  0  0  0  0
 26 51  1  0  0  0  0
 27 28  2  0  0  0  0
 27 52  1  0  0  0  0
M  CHG  1  52  -1
M  END
$$$$
ZINC02730193
  -OEChem-08230709463D

 52 54  0     1  0  0  0  0  0999 V2000
    6.6391    1.6121   -4.8493 C   0  0  0  0  0  0  0  0  0  0  0  0
    7.2576    1.1469   -5.9883 C   0  0  0  0  0  0  0  0  0  0  0  0
    8.5200    1.6134   -6.3358 C   0  0  0  0  0  0  0  0  0  0  0  0
    9.1603    2.5557   -5.5395 C   0  0  0  0  0  0  0  0  0  0  0  0
    8.5459    3.0304   -4.4023 C   0  0  0  0  0  0  0  0  0  0  0  0
    7.2770    2.5636   -4.0492 C   0  0  0  0  0  0  0  0  0  0  0  0
    6.6149    3.0699   -2.8310 C   0  0  0  0  0  0  0  0  0  0  0  0
    7.1735    3.8942   -2.1333 O   0  0  0  0  0  0  0  0  0  0  0  0
    5.3910    2.6184   -2.4922 N   0  0  0  0  0  0  0  0  0  0  0  0
    4.7625    3.0990   -1.3359 N   0  0  0  0  0  0  0  0  0  0  0  0
    3.5386    2.6475   -0.9970 C   0  0  0  0  0  0  0  0  0  0  0  0
    2.9814    1.8253   -1.6930 O   0  0  0  0  0  0  0  0  0  0  0  0
    2.8626    3.1644    0.2467 C   0  0  1  0  0  0  0  0  0  0  0  0
    3.4780    2.9353    1.1167 H   0  0  0  0  0  0  0  0  0  0  0  0
    2.6801    4.6794    0.1358 C   0  0  0  0  0  0  0  0  0  0  0  0
    1.8163    5.0010   -1.0854 C   0  0  0  0  0  0  0  0  0  0  0  0
    0.4486    4.3324   -0.9330 C   0  0  0  0  0  0  0  0  0  0  0  0
    0.6311    2.8174   -0.8221 C   0  0  0  0  0  0  0  0  0  0  0  0
    1.4949    2.4958    0.3991 C   0  0  1  0  0  0  0  0  0  0  0  0
    1.0059    2.8696    1.2986 H   0  0  0  0  0  0  0  0  0  0  0  0
    1.6746    1.0035    0.5083 C   0  0  0  0  0  0  0  0  0  0  0  0
    2.7829    0.5240    0.4683 O   0  0  0  0  0  0  0  0  0  0  0  0
    9.1288    1.1479   -7.4559 O   0  0  0  0  0  0  0  0  0  0  0  0
    8.3671    0.2763   -8.2937 C   0  0  0  0  0  0  0  0  0  0  0  0
    8.5131   -1.1816   -7.8110 C   0  0  0  0  0  0  0  0  0  0  0  0
    8.5474   -2.0123   -9.1187 C   0  0  0  0  0  0  0  0  0  0  0  0
    9.3687   -1.1122  -10.0749 C   0  0  0  0  0  0  0  0  0  0  0  0
    8.9104    0.3205   -9.7327 C   0  0  0  0  0  0  0  0  0  0  0  0
    5.6605    1.2453   -4.5771 H   0  0  0  0  0  0  0  0  0  0  0  0
    6.7633    0.4147   -6.6096 H   0  0  0  0  0  0  0  0  0  0  0  0
   10.1411    2.9157   -5.8129 H   0  0  0  0  0  0  0  0  0  0  0  0
    9.0439    3.7628   -3.7842 H   0  0  0  0  0  0  0  0  0  0  0  0
    4.9453    1.9608   -3.0488 H   0  0  0  0  0  0  0  0  0  0  0  0
    5.2082    3.7566   -0.7793 H   0  0  0  0  0  0  0  0  0  0  0  0
    3.6544    5.1558    0.0272 H   0  0  0  0  0  0  0  0  0  0  0  0
    2.1911    5.0533    1.0354 H   0  0  0  0  0  0  0  0  0  0  0  0
    2.3052    4.6272   -1.9850 H   0  0  0  0  0  0  0  0  0  0  0  0
    1.6862    6.0804   -1.1644 H   0  0  0  0  0  0  0  0  0  0  0  0
   -0.1668    4.5615   -1.8030 H   0  0  0  0  0  0  0  0  0  0  0  0
   -0.0404    4.7063   -0.0334 H   0  0  0  0  0  0  0  0  0  0  0  0
    1.1201    2.4435   -1.7217 H   0  0  0  0  0  0  0  0  0  0  0  0
   -0.3433    2.3410   -0.7136 H   0  0  0  0  0  0  0  0  0  0  0  0
    7.3175    0.5702   -8.2817 H   0  0  0  0  0  0  0  0  0  0  0  0
    9.4418   -1.3080   -7.2545 H   0  0  0  0  0  0  0  0  0  0  0  0
    7.6582   -1.4681   -7.1984 H   0  0  0  0  0  0  0  0  0  0  0  0
    7.5395   -2.1667   -9.5040 H   0  0  0  0  0  0  0  0  0  0  0  0
    9.0492   -2.9669   -8.9605 H   0  0  0  0  0  0  0  0  0  0  0  0
    9.1379   -1.3487  -11.1136 H   0  0  0  0  0  0  0  0  0  0  0  0
   10.4357   -1.2271   -9.8845 H   0  0  0  0  0  0  0  0  0  0  0  0
    8.1243    0.6351  -10.4191 H   0  0  0  0  0  0  0  0  0  0  0  0
    9.7551    1.0069   -9.7919 H   0  0  0  0  0  0  0  0  0  0  0  0
    0.6035    0.2071    0.6499 O   0  5  0  0  0  0  0  0  0  0  0  0
  1  6  2  0  0  0  0
  1  2  1  0  0  0  0
  1 29  1  0  0  0  0
  2  3  2  0  0  0  0
  2 30  1  0  0  0  0
  3  4  1  0  0  0  0
  3 23  1  0  0  0  0
  4  5  2  0  0  0  0
  4 31  1  0  0  0  0
  5  6  1  0  0  0  0
  5 32  1  0  0  0  0
  6  7  1  0  0  0  0
  7  8  2  0  0  0  0
  7  9  1  0  0  0  0
  9 10  1  0  0  0  0
  9 33  1  0  0  0  0
 10 11  1  0  0  0  0
 10 34  1  0  0  0  0
 11 12  2  0  0  0  0
 11 13  1  0  0  0  0
 13 14  1  0  0  0  0
 13 19  1  0  0  0  0
 13 15  1  0  0  0  0
 15 16  1  0  0  0  0
 15 35  1  0  0  0  0
 15 36  1  0  0  0  0
 16 17  1  0  0  0  0
 16 37  1  0  0  0  0
 16 38  1  0  0  0  0
 17 18  1  0  0  0  0
 17 39  1  0  0  0  0
 17 40  1  0  0  0  0
 18 19  1  0  0  0  0
 18 41  1  0  0  0  0
 18 42  1  0  0  0  0
 19 20  1  0  0  0  0
 19 21  1  0  0  0  0
 21 22  2  0  0  0  0
 21 52  1  0  0  0  0
 23 24  1  0  0  0  0
 24 28  1  0  0  0  0
 24 25  1  0  0  0  0
 24 43  1  0  0  0  0
 25 26  1  0  0  0  0
 25 44  1  0  0  0  0
 25 45  1  0  0  0  0
 26 27  1  0  0  0  0
 26 46  1  0  0  0  0
 26 47  1  0  0  0  0
 27 28  1  0  0  0  0
 27 48  1  0  0  0  0
 27 49  1  0  0  0  0
 28 50  1  0  0  0  0
 28 51  1  0  0  0  0
M  CHG  1  52  -1
M  END
$$$$
ZINC02730194
  -OEChem-08230709463D

 52 54  0     1  0  0  0  0  0999 V2000
    2.1328   -2.6085    1.3750 C   0  0  0  0  0  0  0  0  0  0  0  0
    1.1039   -1.9935    0.6972 C   0  0  0  0  0  0  0  0  0  0  0  0
    1.0173   -0.6064    0.6715 C   0  0  0  0  0  0  0  0  0  0  0  0
    1.9711    0.1654    1.3247 C   0  0  0  0  0  0  0  0  0  0  0  0
    3.0000   -0.4421    2.0091 C   0  0  0  0  0  0  0  0  0  0  0  0
    3.0906   -1.8362    2.0374 C   0  0  0  0  0  0  0  0  0  0  0  0
    4.1953   -2.4913    2.7647 C   0  0  0  0  0  0  0  0  0  0  0  0
    4.2728   -3.7045    2.7880 O   0  0  0  0  0  0  0  0  0  0  0  0
    5.1182   -1.7448    3.4030 N   0  0  0  0  0  0  0  0  0  0  0  0
    6.1668   -2.3666    4.0933 N   0  0  0  0  0  0  0  0  0  0  0  0
    7.0897   -1.6200    4.7316 C   0  0  0  0  0  0  0  0  0  0  0  0
    7.0124   -0.4099    4.7084 O   0  0  0  0  0  0  0  0  0  0  0  0
    8.2176   -2.2889    5.4741 C   0  0  2  0  0  0  0  0  0  0  0  0
    8.8019   -2.8930    4.7799 H   0  0  0  0  0  0  0  0  0  0  0  0
    7.6438   -3.1861    6.5727 C   0  0  0  0  0  0  0  0  0  0  0  0
    8.7890   -3.8652    7.3265 C   0  0  0  0  0  0  0  0  0  0  0  0
    9.6879   -2.7992    7.9563 C   0  0  0  0  0  0  0  0  0  0  0  0
   10.2617   -1.9021    6.8578 C   0  0  0  0  0  0  0  0  0  0  0  0
    9.1165   -1.2230    6.1039 C   0  0  1  0  0  0  0  0  0  0  0  0
    8.5323   -0.6189    6.7981 H   0  0  0  0  0  0  0  0  0  0  0  0
    9.6817   -0.3393    5.0219 C   0  0  0  0  0  0  0  0  0  0  0  0
    9.3950   -0.5413    3.8657 O   0  0  0  0  0  0  0  0  0  0  0  0
    0.0021   -0.0041    0.0020 O   0  0  0  0  0  0  0  0  0  0  0  0
   -1.0050   -0.8540   -0.5507 C   0  0  0  0  0  0  0  0  0  0  0  0
   -0.5829   -1.3283   -1.9566 C   0  0  0  0  0  0  0  0  0  0  0  0
   -1.9057   -1.3466   -2.7636 C   0  0  0  0  0  0  0  0  0  0  0  0
   -2.6484   -0.0956   -2.2322 C   0  0  0  0  0  0  0  0  0  0  0  0
   -2.3179   -0.0709   -0.7256 C   0  0  0  0  0  0  0  0  0  0  0  0
    2.1996   -3.6862    1.3943 H   0  0  0  0  0  0  0  0  0  0  0  0
    0.3630   -2.5896    0.1853 H   0  0  0  0  0  0  0  0  0  0  0  0
    1.9029    1.2429    1.2986 H   0  0  0  0  0  0  0  0  0  0  0  0
    3.7383    0.1582    2.5199 H   0  0  0  0  0  0  0  0  0  0  0  0
    5.0564   -0.7769    3.3844 H   0  0  0  0  0  0  0  0  0  0  0  0
    6.2286   -3.3344    4.1119 H   0  0  0  0  0  0  0  0  0  0  0  0
    7.0596   -2.5820    7.2669 H   0  0  0  0  0  0  0  0  0  0  0  0
    7.0034   -3.9455    6.1240 H   0  0  0  0  0  0  0  0  0  0  0  0
    9.3732   -4.4692    6.6323 H   0  0  0  0  0  0  0  0  0  0  0  0
    8.3802   -4.5043    8.1091 H   0  0  0  0  0  0  0  0  0  0  0  0
   10.5037   -3.2830    8.4934 H   0  0  0  0  0  0  0  0  0  0  0  0
    9.1037   -2.1952    8.6505 H   0  0  0  0  0  0  0  0  0  0  0  0
   10.8459   -2.5061    6.1636 H   0  0  0  0  0  0  0  0  0  0  0  0
   10.9021   -1.1427    7.3065 H   0  0  0  0  0  0  0  0  0  0  0  0
   -1.1666   -1.7132    0.1003 H   0  0  0  0  0  0  0  0  0  0  0  0
    0.1243   -0.6270   -2.3995 H   0  0  0  0  0  0  0  0  0  0  0  0
   -0.1507   -2.3278   -1.9083 H   0  0  0  0  0  0  0  0  0  0  0  0
   -2.4741   -2.2523   -2.5518 H   0  0  0  0  0  0  0  0  0  0  0  0
   -1.7111   -1.2555   -3.8322 H   0  0  0  0  0  0  0  0  0  0  0  0
   -3.7229   -0.1961   -2.3855 H   0  0  0  0  0  0  0  0  0  0  0  0
   -2.2752    0.8052   -2.7195 H   0  0  0  0  0  0  0  0  0  0  0  0
   -3.1169   -0.5504   -0.1601 H   0  0  0  0  0  0  0  0  0  0  0  0
   -2.1869    0.9575   -0.3889 H   0  0  0  0  0  0  0  0  0  0  0  0
   10.5037    0.6723    5.3426 O   0  5  0  0  0  0  0  0  0  0  0  0
  1  6  2  0  0  0  0
  1  2  1  0  0  0  0
  1 29  1  0  0  0  0
  2  3  2  0  0  0  0
  2 30  1  0  0  0  0
  3  4  1  0  0  0  0
  3 23  1  0  0  0  0
  4  5  2  0  0  0  0
  4 31  1  0  0  0  0
  5  6  1  0  0  0  0
  5 32  1  0  0  0  0
  6  7  1  0  0  0  0
  7  8  2  0  0  0  0
  7  9  1  0  0  0  0
  9 10  1  0  0  0  0
  9 33  1  0  0  0  0
 10 11  1  0  0  0  0
 10 34  1  0  0  0  0
 11 12  2  0  0  0  0
 11 13  1  0  0  0  0
 13 14  1  0  0  0  0
 13 19  1  0  0  0  0
 13 15  1  0  0  0  0
 15 16  1  0  0  0  0
 15 35  1  0  0  0  0
 15 36  1  0  0  0  0
 16 17  1  0  0  0  0
 16 37  1  0  0  0  0
 16 38  1  0  0  0  0
 17 18  1  0  0  0  0
 17 39  1  0  0  0  0
 17 40  1  0  0  0  0
 18 19  1  0  0  0  0
 18 41  1  0  0  0  0
 18 42  1  0  0  0  0
 19 20  1  0  0  0  0
 19 21  1  0  0  0  0
 21 22  2  0  0  0  0
 21 52  1  0  0  0  0
 23 24  1  0  0  0  0
 24 28  1  0  0  0  0
 24 25  1  0  0  0  0
 24 43  1  0  0  0  0
 25 26  1  0  0  0  0
 25 44  1  0  0  0  0
 25 45  1  0  0  0  0
 26 27  1  0  0  0  0
 26 46  1  0  0  0  0
 26 47  1  0  0  0  0
 27 28  1  0  0  0  0
 27 48  1  0  0  0  0
 27 49  1  0  0  0  0
 28 50  1  0  0  0  0
 28 51  1  0  0  0  0
M  CHG  1  52  -1
M  END
$$$$
ZINC02730195
  -OEChem-08230709463D

 52 54  0     1  0  0  0  0  0999 V2000
   -0.3427   -6.9428   -1.4963 C   0  0  0  0  0  0  0  0  0  0  0  0
   -0.3279   -8.3198   -1.5058 C   0  0  0  0  0  0  0  0  0  0  0  0
   -1.4999   -9.0308   -1.2763 C   0  0  0  0  0  0  0  0  0  0  0  0
   -2.6902   -8.3559   -1.0319 C   0  0  0  0  0  0  0  0  0  0  0  0
   -2.7124   -6.9791   -1.0164 C   0  0  0  0  0  0  0  0  0  0  0  0
   -1.5362   -6.2606   -1.2462 C   0  0  0  0  0  0  0  0  0  0  0  0
   -1.5557   -4.7848   -1.2309 C   0  0  0  0  0  0  0  0  0  0  0  0
   -2.5962   -4.1927   -1.0181 O   0  0  0  0  0  0  0  0  0  0  0  0
   -0.4202   -4.0935   -1.4528 N   0  0  0  0  0  0  0  0  0  0  0  0
   -0.4387   -2.6927   -1.4383 N   0  0  0  0  0  0  0  0  0  0  0  0
    0.6968   -2.0014   -1.6602 C   0  0  0  0  0  0  0  0  0  0  0  0
    1.7346   -2.5920   -1.8725 O   0  0  0  0  0  0  0  0  0  0  0  0
    0.6769   -0.4946   -1.6446 C   0  0  1  0  0  0  0  0  0  0  0  0
   -0.0064   -0.1323   -2.4127 H   0  0  0  0  0  0  0  0  0  0  0  0
    0.2081   -0.0050   -0.2730 C   0  0  0  0  0  0  0  0  0  0  0  0
    0.1879    1.5248   -0.2571 C   0  0  0  0  0  0  0  0  0  0  0  0
    1.5955    2.0564   -0.5347 C   0  0  0  0  0  0  0  0  0  0  0  0
    2.0642    1.5667   -1.9063 C   0  0  0  0  0  0  0  0  0  0  0  0
    2.0844    0.0369   -1.9222 C   0  0  2  0  0  0  0  0  0  0  0  0
    2.7677   -0.3254   -1.1541 H   0  0  0  0  0  0  0  0  0  0  0  0
    2.5462   -0.4454   -3.2732 C   0  0  0  0  0  0  0  0  0  0  0  0
    1.8235   -1.1427   -3.9451 O   0  0  0  0  0  0  0  0  0  0  0  0
   -1.4822  -10.3877   -1.2912 O   0  0  0  0  0  0  0  0  0  0  0  0
   -2.7405  -11.0544   -1.1718 C   0  0  0  0  0  0  0  0  0  0  0  0
   -3.0995  -11.2428    0.3167 C   0  0  0  0  0  0  0  0  0  0  0  0
   -3.7840  -12.6321    0.3686 C   0  0  0  0  0  0  0  0  0  0  0  0
   -2.9585  -13.4590   -0.6482 C   0  0  0  0  0  0  0  0  0  0  0  0
   -2.6513  -12.4627   -1.7853 C   0  0  0  0  0  0  0  0  0  0  0  0
    0.5676   -6.3910   -1.6784 H   0  0  0  0  0  0  0  0  0  0  0  0
    0.5948   -8.8478   -1.6960 H   0  0  0  0  0  0  0  0  0  0  0  0
   -3.5988   -8.9119   -0.8544 H   0  0  0  0  0  0  0  0  0  0  0  0
   -3.6378   -6.4554   -0.8271 H   0  0  0  0  0  0  0  0  0  0  0  0
    0.4098   -4.5658   -1.6226 H   0  0  0  0  0  0  0  0  0  0  0  0
   -1.2688   -2.2203   -1.2686 H   0  0  0  0  0  0  0  0  0  0  0  0
    0.8913   -0.3673    0.4952 H   0  0  0  0  0  0  0  0  0  0  0  0
   -0.7947   -0.3836   -0.0752 H   0  0  0  0  0  0  0  0  0  0  0  0
   -0.4954    1.8871   -1.0253 H   0  0  0  0  0  0  0  0  0  0  0  0
   -0.1461    1.8737    0.7200 H   0  0  0  0  0  0  0  0  0  0  0  0
    1.5811    3.1462   -0.5234 H   0  0  0  0  0  0  0  0  0  0  0  0
    2.2787    1.6941    0.2334 H   0  0  0  0  0  0  0  0  0  0  0  0
    3.0670    1.9454   -2.1041 H   0  0  0  0  0  0  0  0  0  0  0  0
    1.3810    1.9290   -2.6745 H   0  0  0  0  0  0  0  0  0  0  0  0
   -3.5175  -10.4773   -1.6731 H   0  0  0  0  0  0  0  0  0  0  0  0
   -2.1983  -11.2386    0.9299 H   0  0  0  0  0  0  0  0  0  0  0  0
   -3.7887  -10.4646    0.6444 H   0  0  0  0  0  0  0  0  0  0  0  0
   -4.8252  -12.5610    0.0539 H   0  0  0  0  0  0  0  0  0  0  0  0
   -3.7124  -13.0643    1.3666 H   0  0  0  0  0  0  0  0  0  0  0  0
   -3.5451  -14.2974   -1.0238 H   0  0  0  0  0  0  0  0  0  0  0  0
   -2.0344  -13.8130   -0.1912 H   0  0  0  0  0  0  0  0  0  0  0  0
   -3.3856  -12.5694   -2.5837 H   0  0  0  0  0  0  0  0  0  0  0  0
   -1.6481  -12.6377   -2.1741 H   0  0  0  0  0  0  0  0  0  0  0  0
    3.7602   -0.1003   -3.7301 O   0  5  0  0  0  0  0  0  0  0  0  0
  1  6  2  0  0  0  0
  1  2  1  0  0  0  0
  1 29  1  0  0  0  0
  2  3  2  0  0  0  0
  2 30  1  0  0  0  0
  3  4  1  0  0  0  0
  3 23  1  0  0  0  0
  4  5  2  0  0  0  0
  4 31  1  0  0  0  0
  5  6  1  0  0  0  0
  5 32  1  0  0  0  0
  6  7  1  0  0  0  0
  7  8  2  0  0  0  0
  7  9  1  0  0  0  0
  9 10  1  0  0  0  0
  9 33  1  0  0  0  0
 10 11  1  0  0  0  0
 10 34  1  0  0  0  0
 11 12  2  0  0  0  0
 11 13  1  0  0  0  0
 13 14  1  0  0  0  0
 13 19  1  0  0  0  0
 13 15  1  0  0  0  0
 15 16  1  0  0  0  0
 15 35  1  0  0  0  0
 15 36  1  0  0  0  0
 16 17  1  0  0  0  0
 16 37  1  0  0  0  0
 16 38  1  0  0  0  0
 17 18  1  0  0  0  0
 17 39  1  0  0  0  0
 17 40  1  0  0  0  0
 18 19  1  0  0  0  0
 18 41  1  0  0  0  0
 18 42  1  0  0  0  0
 19 20  1  0  0  0  0
 19 21  1  0  0  0  0
 21 22  2  0  0  0  0
 21 52  1  0  0  0  0
 23 24  1  0  0  0  0
 24 28  1  0  0  0  0
 24 25  1  0  0  0  0
 24 43  1  0  0  0  0
 25 26  1  0  0  0  0
 25 44  1  0  0  0  0
 25 45  1  0  0  0  0
 26 27  1  0  0  0  0
 26 46  1  0  0  0  0
 26 47  1  0  0  0  0
 27 28  1  0  0  0  0
 27 48  1  0  0  0  0
 27 49  1  0  0  0  0
 28 50  1  0  0  0  0
 28 51  1  0  0  0  0
M  CHG  1  52  -1
M  END
$$$$
ZINC02730196
  -OEChem-08230709463D

 52 54  0     1  0  0  0  0  0999 V2000
    6.1447    2.9548   -1.1409 C   0  0  0  0  0  0  0  0  0  0  0  0
    7.4370    3.4302   -1.1542 C   0  0  0  0  0  0  0  0  0  0  0  0
    8.3505    2.9394   -2.0798 C   0  0  0  0  0  0  0  0  0  0  0  0
    7.9654    1.9639   -2.9919 C   0  0  0  0  0  0  0  0  0  0  0  0
    6.6764    1.4795   -2.9816 C   0  0  0  0  0  0  0  0  0  0  0  0
    5.7552    1.9700   -2.0524 C   0  0  0  0  0  0  0  0  0  0  0  0
    4.3725    1.4535   -2.0378 C   0  0  0  0  0  0  0  0  0  0  0  0
    4.0339    0.6001   -2.8349 O   0  0  0  0  0  0  0  0  0  0  0  0
    3.4854    1.9278   -1.1409 N   0  0  0  0  0  0  0  0  0  0  0  0
    2.1731    1.4376   -1.1270 N   0  0  0  0  0  0  0  0  0  0  0  0
    1.2860    1.9119   -0.2301 C   0  0  0  0  0  0  0  0  0  0  0  0
    1.6237    2.7631    0.5651 O   0  0  0  0  0  0  0  0  0  0  0  0
   -0.1257    1.3846   -0.2151 C   0  0  2  0  0  0  0  0  0  0  0  0
   -0.1105    0.3109   -0.0280 H   0  0  0  0  0  0  0  0  0  0  0  0
   -0.7863    1.6572   -1.5680 C   0  0  0  0  0  0  0  0  0  0  0  0
   -0.8076    3.1643   -1.8307 C   0  0  0  0  0  0  0  0  0  0  0  0
   -1.6015    3.8635   -0.7254 C   0  0  0  0  0  0  0  0  0  0  0  0
   -0.9410    3.5909    0.6275 C   0  0  0  0  0  0  0  0  0  0  0  0
   -0.9196    2.0838    0.8902 C   0  0  2  0  0  0  0  0  0  0  0  0
   -1.9407    1.7023    0.9010 H   0  0  0  0  0  0  0  0  0  0  0  0
   -0.2690    1.8153    2.2227 C   0  0  0  0  0  0  0  0  0  0  0  0
    0.7275    1.1345    2.2822 O   0  0  0  0  0  0  0  0  0  0  0  0
    9.6218    3.4142   -2.0932 O   0  0  0  0  0  0  0  0  0  0  0  0
   10.4732    2.9592   -3.1468 C   0  0  0  0  0  0  0  0  0  0  0  0
   11.1512    1.6336   -2.7432 C   0  0  0  0  0  0  0  0  0  0  0  0
   12.5777    1.7406   -3.3391 C   0  0  0  0  0  0  0  0  0  0  0  0
   12.9284    3.2336   -3.1224 C   0  0  0  0  0  0  0  0  0  0  0  0
   11.6026    3.9761   -3.3882 C   0  0  0  0  0  0  0  0  0  0  0  0
    5.4343    3.3399   -0.4244 H   0  0  0  0  0  0  0  0  0  0  0  0
    7.7400    4.1887   -0.4476 H   0  0  0  0  0  0  0  0  0  0  0  0
    8.6781    1.5850   -3.7095 H   0  0  0  0  0  0  0  0  0  0  0  0
    6.3778    0.7218   -3.6908 H   0  0  0  0  0  0  0  0  0  0  0  0
    3.7556    2.6086   -0.5049 H   0  0  0  0  0  0  0  0  0  0  0  0
    1.9029    0.7568   -1.7629 H   0  0  0  0  0  0  0  0  0  0  0  0
   -0.2206    1.1591   -2.3554 H   0  0  0  0  0  0  0  0  0  0  0  0
   -1.8073    1.2758   -1.5572 H   0  0  0  0  0  0  0  0  0  0  0  0
    0.2135    3.5457   -1.8415 H   0  0  0  0  0  0  0  0  0  0  0  0
   -1.2782    3.3585   -2.7945 H   0  0  0  0  0  0  0  0  0  0  0  0
   -1.6167    4.9372   -0.9125 H   0  0  0  0  0  0  0  0  0  0  0  0
   -2.6226    3.4821   -0.7146 H   0  0  0  0  0  0  0  0  0  0  0  0
    0.0801    3.9723    0.6167 H   0  0  0  0  0  0  0  0  0  0  0  0
   -1.5066    4.0890    1.4149 H   0  0  0  0  0  0  0  0  0  0  0  0
    9.8948    2.8198   -4.0601 H   0  0  0  0  0  0  0  0  0  0  0  0
   11.1971    1.5436   -1.6579 H   0  0  0  0  0  0  0  0  0  0  0  0
   10.6190    0.7860   -3.1751 H   0  0  0  0  0  0  0  0  0  0  0  0
   12.5713    1.4955   -4.4012 H   0  0  0  0  0  0  0  0  0  0  0  0
   13.2739    1.0980   -2.8001 H   0  0  0  0  0  0  0  0  0  0  0  0
   13.6929    3.5526   -3.8308 H   0  0  0  0  0  0  0  0  0  0  0  0
   13.2615    3.4025   -2.0984 H   0  0  0  0  0  0  0  0  0  0  0  0
   11.5727    4.3296   -4.4189 H   0  0  0  0  0  0  0  0  0  0  0  0
   11.5012    4.8167   -2.7017 H   0  0  0  0  0  0  0  0  0  0  0  0
   -0.7965    2.3324    3.3435 O   0  5  0  0  0  0  0  0  0  0  0  0
  1  6  2  0  0  0  0
  1  2  1  0  0  0  0
  1 29  1  0  0  0  0
  2  3  2  0  0  0  0
  2 30  1  0  0  0  0
  3  4  1  0  0  0  0
  3 23  1  0  0  0  0
  4  5  2  0  0  0  0
  4 31  1  0  0  0  0
  5  6  1  0  0  0  0
  5 32  1  0  0  0  0
  6  7  1  0  0  0  0
  7  8  2  0  0  0  0
  7  9  1  0  0  0  0
  9 10  1  0  0  0  0
  9 33  1  0  0  0  0
 10 11  1  0  0  0  0
 10 34  1  0  0  0  0
 11 12  2  0  0  0  0
 11 13  1  0  0  0  0
 13 14  1  0  0  0  0
 13 19  1  0  0  0  0
 13 15  1  0  0  0  0
 15 16  1  0  0  0  0
 15 35  1  0  0  0  0
 15 36  1  0  0  0  0
 16 17  1  0  0  0  0
 16 37  1  0  0  0  0
 16 38  1  0  0  0  0
 17 18  1  0  0  0  0
 17 39  1  0  0  0  0
 17 40  1  0  0  0  0
 18 19  1  0  0  0  0
 18 41  1  0  0  0  0
 18 42  1  0  0  0  0
 19 20  1  0  0  0  0
 19 21  1  0  0  0  0
 21 22  2  0  0  0  0
 21 52  1  0  0  0  0
 23 24  1  0  0  0  0
 24 28  1  0  0  0  0
 24 25  1  0  0  0  0
 24 43  1  0  0  0  0
 25 26  1  0  0  0  0
 25 44  1  0  0  0  0
 25 45  1  0  0  0  0
 26 27  1  0  0  0  0
 26 46  1  0  0  0  0
 26 47  1  0  0  0  0
 27 28  1  0  0  0  0
 27 48  1  0  0  0  0
 27 49  1  0  0  0  0
 28 50  1  0  0  0  0
 28 51  1  0  0  0  0
M  CHG  1  52  -1
M  END
$$$$
ZINC02730251
  -OEChem-08230709463D

 53 56  0     1  0  0  0  0  0999 V2000
   -0.1155    0.7664   -0.7580 C   0  0  0  0  0  0  0  0  0  0  0  0
   -0.0265   -0.5942   -0.9506 C   0  0  0  0  0  0  0  0  0  0  0  0
    1.2042   -1.1805   -1.2218 C   0  0  0  0  0  0  0  0  0  0  0  0
    2.3497   -0.3969   -1.2988 C   0  0  0  0  0  0  0  0  0  0  0  0
    2.2691    0.9643   -1.1069 C   0  0  0  0  0  0  0  0  0  0  0  0
    1.0336    1.5577   -0.8350 C   0  0  0  0  0  0  0  0  0  0  0  0
    0.9426    3.0165   -0.6296 C   0  0  0  0  0  0  0  0  0  0  0  0
   -0.1333    3.5312   -0.3931 O   0  0  0  0  0  0  0  0  0  0  0  0
    2.0521    3.7781   -0.7043 N   0  0  0  0  0  0  0  0  0  0  0  0
    1.9657    5.1628   -0.5093 N   0  0  0  0  0  0  0  0  0  0  0  0
    3.0751    5.9243   -0.5840 C   0  0  0  0  0  0  0  0  0  0  0  0
    4.1483    5.4109   -0.8199 O   0  0  0  0  0  0  0  0  0  0  0  0
    2.9822    7.4138   -0.3743 C   0  0  2  0  0  0  0  0  0  0  0  0
    2.3090    7.8586   -1.1071 H   0  0  0  0  0  0  0  0  0  0  0  0
    4.3957    8.0652   -0.4688 C   0  0  1  0  0  0  0  0  0  0  0  0
    5.0383    7.6956   -1.2679 H   0  0  0  0  0  0  0  0  0  0  0  0
    4.1189    9.5997   -0.4716 C   0  0  0  0  0  0  0  0  0  0  0  0
    3.6395    9.9129    0.9643 C   0  0  0  0  0  0  0  0  0  0  0  0
    3.6718    8.5382    1.6993 C   0  0  2  0  0  0  0  0  0  0  0  0
    3.6977    8.5805    2.7882 H   0  0  0  0  0  0  0  0  0  0  0  0
    4.9063    7.8652    1.0018 C   0  0  0  0  0  0  0  0  0  0  0  0
    2.4998    7.7269    1.0605 C   0  0  1  0  0  0  0  0  0  0  0  0
    2.3298    6.8036    1.6143 H   0  0  0  0  0  0  0  0  0  0  0  0
    1.2427    8.5572    1.0227 C   0  0  0  0  0  0  0  0  0  0  0  0
    0.9197    9.1181    0.0024 O   0  0  0  0  0  0  0  0  0  0  0  0
    1.2878   -2.5217   -1.4115 O   0  0  0  0  0  0  0  0  0  0  0  0
    0.0591   -3.2508   -1.4391 C   0  0  0  0  0  0  0  0  0  0  0  0
   -0.3523   -3.6474   -0.0062 C   0  0  0  0  0  0  0  0  0  0  0  0
   -0.9709   -5.0592   -0.1664 C   0  0  0  0  0  0  0  0  0  0  0  0
   -0.0647   -5.7103   -1.2407 C   0  0  0  0  0  0  0  0  0  0  0  0
    0.2415   -4.5617   -2.2240 C   0  0  0  0  0  0  0  0  0  0  0  0
   -1.0729    1.2219   -0.5521 H   0  0  0  0  0  0  0  0  0  0  0  0
   -0.9142   -1.2064   -0.8913 H   0  0  0  0  0  0  0  0  0  0  0  0
    3.3042   -0.8563   -1.5090 H   0  0  0  0  0  0  0  0  0  0  0  0
    3.1595    1.5725   -1.1672 H   0  0  0  0  0  0  0  0  0  0  0  0
    2.9104    3.3675   -0.8929 H   0  0  0  0  0  0  0  0  0  0  0  0
    1.1074    5.5734   -0.3206 H   0  0  0  0  0  0  0  0  0  0  0  0
    5.0326   10.1503   -0.6957 H   0  0  0  0  0  0  0  0  0  0  0  0
    3.3401    9.8441   -1.1940 H   0  0  0  0  0  0  0  0  0  0  0  0
    4.3174   10.6174    1.4461 H   0  0  0  0  0  0  0  0  0  0  0  0
    2.6257   10.3132    0.9476 H   0  0  0  0  0  0  0  0  0  0  0  0
    4.9986    6.8109    1.2626 H   0  0  0  0  0  0  0  0  0  0  0  0
    5.8306    8.4109    1.1914 H   0  0  0  0  0  0  0  0  0  0  0  0
   -0.7232   -2.6464   -1.8984 H   0  0  0  0  0  0  0  0  0  0  0  0
    0.5211   -3.6854    0.6448 H   0  0  0  0  0  0  0  0  0  0  0  0
   -1.0913   -2.9485    0.3858 H   0  0  0  0  0  0  0  0  0  0  0  0
   -2.0002   -4.9916   -0.5187 H   0  0  0  0  0  0  0  0  0  0  0  0
   -0.9178   -5.6130    0.7709 H   0  0  0  0  0  0  0  0  0  0  0  0
   -0.5941   -6.5164   -1.7487 H   0  0  0  0  0  0  0  0  0  0  0  0
    0.8554   -6.0817   -0.7895 H   0  0  0  0  0  0  0  0  0  0  0  0
   -0.4528   -4.5939   -3.0636 H   0  0  0  0  0  0  0  0  0  0  0  0
    1.2673   -4.6417   -2.5838 H   0  0  0  0  0  0  0  0  0  0  0  0
    0.4819    8.6736    2.1224 O   0  5  0  0  0  0  0  0  0  0  0  0
  1  6  2  0  0  0  0
  1  2  1  0  0  0  0
  1 32  1  0  0  0  0
  2  3  2  0  0  0  0
  2 33  1  0  0  0  0
  3  4  1  0  0  0  0
  3 26  1  0  0  0  0
  4  5  2  0  0  0  0
  4 34  1  0  0  0  0
  5  6  1  0  0  0  0
  5 35  1  0  0  0  0
  6  7  1  0  0  0  0
  7  8  2  0  0  0  0
  7  9  1  0  0  0  0
  9 10  1  0  0  0  0
  9 36  1  0  0  0  0
 10 11  1  0  0  0  0
 10 37  1  0  0  0  0
 11 12  2  0  0  0  0
 11 13  1  0  0  0  0
 13 14  1  0  0  0  0
 13 22  1  0  0  0  0
 13 15  1  0  0  0  0
 15 16  1  0  0  0  0
 15 21  1  0  0  0  0
 15 17  1  0  0  0  0
 17 18  1  0  0  0  0
 17 38  1  0  0  0  0
 17 39  1  0  0  0  0
 18 19  1  0  0  0  0
 18 40  1  0  0  0  0
 18 41  1  0  0  0  0
 19 20  1  0  0  0  0
 19 21  1  0  0  0  0
 19 22  1  0  0  0  0
 21 42  1  0  0  0  0
 21 43  1  0  0  0  0
 22 23  1  0  0  0  0
 22 24  1  0  0  0  0
 24 25  2  0  0  0  0
 24 53  1  0  0  0  0
 26 27  1  0  0  0  0
 27 31  1  0  0  0  0
 27 28  1  0  0  0  0
 27 44  1  0  0  0  0
 28 29  1  0  0  0  0
 28 45  1  0  0  0  0
 28 46  1  0  0  0  0
 29 30  1  0  0  0  0
 29 47  1  0  0  0  0
 29 48  1  0  0  0  0
 30 31  1  0  0  0  0
 30 49  1  0  0  0  0
 30 50  1  0  0  0  0
 31 51  1  0  0  0  0
 31 52  1  0  0  0  0
M  CHG  1  53  -1
M  END
$$$$
ZINC02736413
  -OEChem-08230709463D

 55 57  0     1  0  0  0  0  0999 V2000
   -0.9055  -12.0796   -1.9920 C   0  0  0  0  0  0  0  0  0  0  0  0
   -0.7131  -10.6129   -2.3826 C   0  0  0  0  0  0  0  0  0  0  0  0
    0.7601  -10.3613   -2.7101 C   0  0  0  0  0  0  0  0  0  0  0  0
    1.1843  -11.2590   -3.8742 C   0  0  0  0  0  0  0  0  0  0  0  0
    1.6168  -10.6788   -1.4828 C   0  0  0  0  0  0  0  0  0  0  0  0
    0.9525   -8.8946   -3.1007 C   0  0  2  0  0  0  0  0  0  0  0  0
    0.3392   -8.6651   -3.9721 H   0  0  0  0  0  0  0  0  0  0  0  0
    2.4265   -8.6400   -3.4291 C   0  0  0  0  0  0  0  0  0  0  0  0
    2.5878   -7.2548   -4.0578 C   0  0  0  0  0  0  0  0  0  0  0  0
    1.9225   -6.2252   -3.1529 C   0  0  0  0  0  0  0  0  0  0  0  0
    1.0189   -6.5992   -2.2200 C   0  0  0  0  0  0  0  0  0  0  0  0
    0.5324   -5.0905   -1.4318 S   0  0  0  0  0  0  0  0  0  0  0  0
    1.5134   -3.9782   -2.3276 C   0  0  0  0  0  0  0  0  0  0  0  0
    2.1891   -4.7989   -3.2183 C   0  0  0  0  0  0  0  0  0  0  0  0
    3.1186   -4.2603   -4.1651 C   0  0  0  0  0  0  0  0  0  0  0  0
    3.8560   -3.8330   -4.9162 N   0  0  0  0  0  0  0  0  0  0  0  0
    1.5980   -2.5995   -2.1911 N   0  0  0  0  0  0  0  0  0  0  0  0
    0.8524   -1.9672   -1.2633 C   0  0  0  0  0  0  0  0  0  0  0  0
    0.1076   -2.6029   -0.5477 O   0  0  0  0  0  0  0  0  0  0  0  0
    0.9443   -0.4704   -1.1150 C   0  0  2  0  0  0  0  0  0  0  0  0
    0.6651    0.0086   -2.0535 H   0  0  0  0  0  0  0  0  0  0  0  0
    2.3742   -0.0776   -0.7374 C   0  0  0  0  0  0  0  0  0  0  0  0
    2.4233    1.3657   -0.3296 C   0  0  0  0  0  0  0  0  0  0  0  0
    1.3830    2.0620   -0.0001 C   0  0  0  0  0  0  0  0  0  0  0  0
   -0.0187    1.5260    0.0104 C   0  0  0  0  0  0  0  0  0  0  0  0
    0.0021   -0.0041    0.0020 C   0  0  1  0  0  0  0  0  0  0  0  0
    0.3596   -0.3710    0.9641 H   0  0  0  0  0  0  0  0  0  0  0  0
   -1.3872   -0.5281   -0.2554 C   0  0  0  0  0  0  0  0  0  0  0  0
   -1.6020   -1.2216   -1.2213 O   0  0  0  0  0  0  0  0  0  0  0  0
    0.5431   -7.9892   -1.9299 C   0  0  0  0  0  0  0  0  0  0  0  0
   -1.9550  -12.2588   -1.7586 H   0  0  0  0  0  0  0  0  0  0  0  0
   -0.6033  -12.7191   -2.8213 H   0  0  0  0  0  0  0  0  0  0  0  0
   -0.2951  -12.3058   -1.1176 H   0  0  0  0  0  0  0  0  0  0  0  0
   -1.0152   -9.9733   -1.5533 H   0  0  0  0  0  0  0  0  0  0  0  0
   -1.3234  -10.3866   -3.2569 H   0  0  0  0  0  0  0  0  0  0  0  0
    2.2338  -11.0798   -4.1075 H   0  0  0  0  0  0  0  0  0  0  0  0
    1.0472  -12.3039   -3.5959 H   0  0  0  0  0  0  0  0  0  0  0  0
    0.5739  -11.0328   -4.7485 H   0  0  0  0  0  0  0  0  0  0  0  0
    1.3147  -10.0393   -0.6535 H   0  0  0  0  0  0  0  0  0  0  0  0
    1.4798  -11.7238   -1.2046 H   0  0  0  0  0  0  0  0  0  0  0  0
    2.6664  -10.4996   -1.7162 H   0  0  0  0  0  0  0  0  0  0  0  0
    2.7778   -9.3983   -4.1288 H   0  0  0  0  0  0  0  0  0  0  0  0
    3.0146   -8.6925   -2.5129 H   0  0  0  0  0  0  0  0  0  0  0  0
    2.1124   -7.2409   -5.0385 H   0  0  0  0  0  0  0  0  0  0  0  0
    3.6471   -7.0195   -4.1619 H   0  0  0  0  0  0  0  0  0  0  0  0
    2.1937   -2.0911   -2.7634 H   0  0  0  0  0  0  0  0  0  0  0  0
    2.7126   -0.6990    0.0917 H   0  0  0  0  0  0  0  0  0  0  0  0
    3.0299   -0.2334   -1.5941 H   0  0  0  0  0  0  0  0  0  0  0  0
    3.3865    1.8538   -0.3094 H   0  0  0  0  0  0  0  0  0  0  0  0
    1.5331    3.0929    0.2847 H   0  0  0  0  0  0  0  0  0  0  0  0
   -0.5494    1.8850   -0.8714 H   0  0  0  0  0  0  0  0  0  0  0  0
   -0.5324    1.8755    0.9060 H   0  0  0  0  0  0  0  0  0  0  0  0
    1.0014   -8.3495   -1.0089 H   0  0  0  0  0  0  0  0  0  0  0  0
   -0.5420   -7.9917   -1.8260 H   0  0  0  0  0  0  0  0  0  0  0  0
   -2.3861   -0.2245    0.5882 O   0  5  0  0  0  0  0  0  0  0  0  0
  1  2  1  0  0  0  0
  1 31  1  0  0  0  0
  1 32  1  0  0  0  0
  1 33  1  0  0  0  0
  2  3  1  0  0  0  0
  2 34  1  0  0  0  0
  2 35  1  0  0  0  0
  3  4  1  0  0  0  0
  3  5  1  0  0  0  0
  3  6  1  0  0  0  0
  4 36  1  0  0  0  0
  4 37  1  0  0  0  0
  4 38  1  0  0  0  0
  5 39  1  0  0  0  0
  5 40  1  0  0  0  0
  5 41  1  0  0  0  0
  6  7  1  0  0  0  0
  6 30  1  0  0  0  0
  6  8  1  0  0  0  0
  8  9  1  0  0  0  0
  8 42  1  0  0  0  0
  8 43  1  0  0  0  0
  9 10  1  0  0  0  0
  9 44  1  0  0  0  0
  9 45  1  0  0  0  0
 10 14  1  0  0  0  0
 10 11  2  0  0  0  0
 11 12  1  0  0  0  0
 11 30  1  0  0  0  0
 12 13  1  0  0  0  0
 13 14  2  0  0  0  0
 13 17  1  0  0  0  0
 14 15  1  0  0  0  0
 15 16  3  0  0  0  0
 17 18  1  0  0  0  0
 17 46  1  0  0  0  0
 18 19  2  0  0  0  0
 18 20  1  0  0  0  0
 20 21  1  0  0  0  0
 20 26  1  0  0  0  0
 20 22  1  0  0  0  0
 22 23  1  0  0  0  0
 22 47  1  0  0  0  0
 22 48  1  0  0  0  0
 23 24  2  0  0  0  0
 23 49  1  0  0  0  0
 24 25  1  0  0  0  0
 24 50  1  0  0  0  0
 25 26  1  0  0  0  0
 25 51  1  0  0  0  0
 25 52  1  0  0  0  0
 26 27  1  0  0  0  0
 26 28  1  0  0  0  0
 28 29  2  0  0  0  0
 28 55  1  0  0  0  0
 30 53  1  0  0  0  0
 30 54  1  0  0  0  0
M  CHG  1  55  -1
M  END
$$$$
ZINC02737962
  -OEChem-08230709463D

 52 54  0     1  0  0  0  0  0999 V2000
    6.3348    6.0008    1.2262 C   0  0  0  0  0  0  0  0  0  0  0  0
    4.8288    5.9483    1.2387 C   0  0  0  0  0  0  0  0  0  0  0  0
    3.9201    6.9696    1.2521 C   0  0  0  0  0  0  0  0  0  0  0  0
    2.6259    6.6879    1.2622 N   0  0  0  0  0  0  0  0  0  0  0  0
    2.1961    5.4399    1.2596 C   0  0  0  0  0  0  0  0  0  0  0  0
    3.7362    4.5328    1.2480 S   0  0  0  0  0  0  0  0  0  0  0  0
    0.8925    4.9590    1.2695 N   0  0  0  0  0  0  0  0  0  0  0  0
    0.6642    3.6307    1.2645 C   0  0  0  0  0  0  0  0  0  0  0  0
    1.5966    2.8552    1.2515 O   0  0  0  0  0  0  0  0  0  0  0  0
   -0.7496    3.1091    1.2752 C   0  0  1  0  0  0  0  0  0  0  0  0
   -1.2598    3.4606    2.1720 H   0  0  0  0  0  0  0  0  0  0  0  0
   -1.4896    3.6159    0.0357 C   0  0  0  0  0  0  0  0  0  0  0  0
   -0.7734    3.1225   -1.2231 C   0  0  0  0  0  0  0  0  0  0  0  0
   -0.7527    1.5927   -1.2315 C   0  0  0  0  0  0  0  0  0  0  0  0
   -0.0127    1.0858    0.0080 C   0  0  0  0  0  0  0  0  0  0  0  0
   -0.7288    1.5792    1.2668 C   0  0  1  0  0  0  0  0  0  0  0  0
   -1.7514    1.2020    1.2746 H   0  0  0  0  0  0  0  0  0  0  0  0
    0.0000    1.0800    2.4877 C   0  0  0  0  0  0  0  0  0  0  0  0
    0.4561    1.8671    3.2830 O   0  0  0  0  0  0  0  0  0  0  0  0
    4.3792    8.3799    1.2548 C   0  0  0  0  0  0  0  0  0  0  0  0
    5.5381    8.7371    1.9420 C   0  0  0  0  0  0  0  0  0  0  0  0
    5.9634   10.0500    1.9366 C   0  0  0  0  0  0  0  0  0  0  0  0
    5.2360   11.0126    1.2601 C   0  0  0  0  0  0  0  0  0  0  0  0
    4.0822   10.6649    0.5807 C   0  0  0  0  0  0  0  0  0  0  0  0
    3.6503    9.3542    0.5748 C   0  0  0  0  0  0  0  0  0  0  0  0
    5.7019   12.4458    1.2636 C   0  0  0  0  0  0  0  0  0  0  0  0
    5.7532   12.9619    2.7030 C   0  0  0  0  0  0  0  0  0  0  0  0
    7.0973   12.5299    0.6416 C   0  0  0  0  0  0  0  0  0  0  0  0
    6.7066    6.0077    2.2508 H   0  0  0  0  0  0  0  0  0  0  0  0
    6.7245    5.1269    0.7041 H   0  0  0  0  0  0  0  0  0  0  0  0
    6.6626    6.9057    0.7146 H   0  0  0  0  0  0  0  0  0  0  0  0
    0.1468    5.5792    1.2799 H   0  0  0  0  0  0  0  0  0  0  0  0
   -1.5044    4.7058    0.0417 H   0  0  0  0  0  0  0  0  0  0  0  0
   -2.5122    3.2386    0.0434 H   0  0  0  0  0  0  0  0  0  0  0  0
    0.2491    3.4998   -1.2308 H   0  0  0  0  0  0  0  0  0  0  0  0
   -1.3006    3.4836   -2.1062 H   0  0  0  0  0  0  0  0  0  0  0  0
   -0.2425    1.2411   -2.1283 H   0  0  0  0  0  0  0  0  0  0  0  0
   -1.7753    1.2154   -1.2238 H   0  0  0  0  0  0  0  0  0  0  0  0
    0.0021   -0.0041    0.0020 H   0  0  0  0  0  0  0  0  0  0  0  0
    1.0099    1.4631    0.0003 H   0  0  0  0  0  0  0  0  0  0  0  0
    6.1043    7.9871    2.4743 H   0  0  0  0  0  0  0  0  0  0  0  0
    6.8632   10.3272    2.4657 H   0  0  0  0  0  0  0  0  0  0  0  0
    3.5183   11.4206    0.0542 H   0  0  0  0  0  0  0  0  0  0  0  0
    2.7490    9.0839    0.0446 H   0  0  0  0  0  0  0  0  0  0  0  0
    5.0084   13.0548    0.6838 H   0  0  0  0  0  0  0  0  0  0  0  0
    6.4468   12.3529    3.2829 H   0  0  0  0  0  0  0  0  0  0  0  0
    6.0902   13.9985    2.7056 H   0  0  0  0  0  0  0  0  0  0  0  0
    4.7591   12.9019    3.1461 H   0  0  0  0  0  0  0  0  0  0  0  0
    7.7908   11.9209    1.2215 H   0  0  0  0  0  0  0  0  0  0  0  0
    7.0607   12.1623   -0.3838 H   0  0  0  0  0  0  0  0  0  0  0  0
    7.4343   13.5665    0.6442 H   0  0  0  0  0  0  0  0  0  0  0  0
    0.1426   -0.2390    2.6917 O   0  5  0  0  0  0  0  0  0  0  0  0
  1  2  1  0  0  0  0
  1 29  1  0  0  0  0
  1 30  1  0  0  0  0
  1 31  1  0  0  0  0
  2  6  1  0  0  0  0
  2  3  2  0  0  0  0
  3  4  1  0  0  0  0
  3 20  1  0  0  0  0
  4  5  2  0  0  0  0
  5  6  1  0  0  0  0
  5  7  1  0  0  0  0
  7  8  1  0  0  0  0
  7 32  1  0  0  0  0
  8  9  2  0  0  0  0
  8 10  1  0  0  0  0
 10 11  1  0  0  0  0
 10 16  1  0  0  0  0
 10 12  1  0  0  0  0
 12 13  1  0  0  0  0
 12 33  1  0  0  0  0
 12 34  1  0  0  0  0
 13 14  1  0  0  0  0
 13 35  1  0  0  0  0
 13 36  1  0  0  0  0
 14 15  1  0  0  0  0
 14 37  1  0  0  0  0
 14 38  1  0  0  0  0
 15 16  1  0  0  0  0
 15 39  1  0  0  0  0
 15 40  1  0  0  0  0
 16 17  1  0  0  0  0
 16 18  1  0  0  0  0
 18 19  2  0  0  0  0
 18 52  1  0  0  0  0
 20 25  2  0  0  0  0
 20 21  1  0  0  0  0
 21 22  2  0  0  0  0
 21 41  1  0  0  0  0
 22 23  1  0  0  0  0
 22 42  1  0  0  0  0
 23 24  2  0  0  0  0
 23 26  1  0  0  0  0
 24 25  1  0  0  0  0
 24 43  1  0  0  0  0
 25 44  1  0  0  0  0
 26 27  1  0  0  0  0
 26 28  1  0  0  0  0
 26 45  1  0  0  0  0
 27 46  1  0  0  0  0
 27 47  1  0  0  0  0
 27 48  1  0  0  0  0
 28 49  1  0  0  0  0
 28 50  1  0  0  0  0
 28 51  1  0  0  0  0
M  CHG  1  52  -1
M  END
$$$$
ZINC02737963
  -OEChem-08230709463D

 52 54  0     1  0  0  0  0  0999 V2000
   -0.3424   -2.6718   -1.4981 C   0  0  0  0  0  0  0  0  0  0  0  0
   -1.3727   -1.9461   -0.6717 C   0  0  0  0  0  0  0  0  0  0  0  0
   -1.2705   -0.7658    0.0106 C   0  0  0  0  0  0  0  0  0  0  0  0
   -2.3169   -0.3117    0.6839 N   0  0  0  0  0  0  0  0  0  0  0  0
   -3.4599   -0.9716    0.7008 C   0  0  0  0  0  0  0  0  0  0  0  0
   -3.0668   -2.3909   -0.3121 S   0  0  0  0  0  0  0  0  0  0  0  0
   -4.6511   -0.6505    1.3401 N   0  0  0  0  0  0  0  0  0  0  0  0
   -5.7148   -1.4715    1.2352 C   0  0  0  0  0  0  0  0  0  0  0  0
   -5.6322   -2.4906    0.5829 O   0  0  0  0  0  0  0  0  0  0  0  0
   -7.0067   -1.1233    1.9286 C   0  0  2  0  0  0  0  0  0  0  0  0
   -7.3738   -0.1677    1.5543 H   0  0  0  0  0  0  0  0  0  0  0  0
   -6.7652   -1.0218    3.4360 C   0  0  0  0  0  0  0  0  0  0  0  0
   -8.0769   -0.6683    4.1399 C   0  0  0  0  0  0  0  0  0  0  0  0
   -9.1146   -1.7576    3.8619 C   0  0  0  0  0  0  0  0  0  0  0  0
   -9.3561   -1.8590    2.3544 C   0  0  0  0  0  0  0  0  0  0  0  0
   -8.0445   -2.2126    1.6505 C   0  0  1  0  0  0  0  0  0  0  0  0
   -7.6774   -3.1682    2.0248 H   0  0  0  0  0  0  0  0  0  0  0  0
   -8.2823   -2.3125    0.1657 C   0  0  0  0  0  0  0  0  0  0  0  0
   -7.6832   -1.5870   -0.5922 O   0  0  0  0  0  0  0  0  0  0  0  0
    0.0021   -0.0041    0.0020 C   0  0  0  0  0  0  0  0  0  0  0  0
   -0.0168    1.3896    0.0097 C   0  0  0  0  0  0  0  0  0  0  0  0
    1.1704    2.0932    0.0021 C   0  0  0  0  0  0  0  0  0  0  0  0
    2.3775    1.4179   -0.0135 C   0  0  0  0  0  0  0  0  0  0  0  0
    2.4024    0.0349   -0.0207 C   0  0  0  0  0  0  0  0  0  0  0  0
    1.2214   -0.6792   -0.0133 C   0  0  0  0  0  0  0  0  0  0  0  0
    3.6706    2.1919   -0.0222 C   0  0  0  0  0  0  0  0  0  0  0  0
    3.7256    3.0790   -1.2676 C   0  0  0  0  0  0  0  0  0  0  0  0
    3.7499    3.0664    1.2308 C   0  0  0  0  0  0  0  0  0  0  0  0
    0.2171   -3.3570   -0.8613 H   0  0  0  0  0  0  0  0  0  0  0  0
   -0.8405   -3.2344   -2.2877 H   0  0  0  0  0  0  0  0  0  0  0  0
    0.3414   -1.9489   -1.9429 H   0  0  0  0  0  0  0  0  0  0  0  0
   -4.7171    0.1646    1.8618 H   0  0  0  0  0  0  0  0  0  0  0  0
   -6.3981   -1.9774    3.8103 H   0  0  0  0  0  0  0  0  0  0  0  0
   -6.0259   -0.2458    3.6341 H   0  0  0  0  0  0  0  0  0  0  0  0
   -8.4440    0.2874    3.7656 H   0  0  0  0  0  0  0  0  0  0  0  0
   -7.9048   -0.5960    5.2138 H   0  0  0  0  0  0  0  0  0  0  0  0
  -10.0491   -1.5057    4.3633 H   0  0  0  0  0  0  0  0  0  0  0  0
   -8.7475   -2.7132    4.2362 H   0  0  0  0  0  0  0  0  0  0  0  0
   -9.7232   -0.9034    1.9801 H   0  0  0  0  0  0  0  0  0  0  0  0
  -10.0954   -2.6351    2.1563 H   0  0  0  0  0  0  0  0  0  0  0  0
   -0.9588    1.9179    0.0170 H   0  0  0  0  0  0  0  0  0  0  0  0
    1.1569    3.1731    0.0077 H   0  0  0  0  0  0  0  0  0  0  0  0
    3.3478   -0.4872   -0.0325 H   0  0  0  0  0  0  0  0  0  0  0  0
    1.2420   -1.7590   -0.0189 H   0  0  0  0  0  0  0  0  0  0  0  0
    4.5101    1.4968   -0.0338 H   0  0  0  0  0  0  0  0  0  0  0  0
    2.8861    3.7741   -1.2559 H   0  0  0  0  0  0  0  0  0  0  0  0
    4.6608    3.6388   -1.2738 H   0  0  0  0  0  0  0  0  0  0  0  0
    3.6691    2.4560   -2.1602 H   0  0  0  0  0  0  0  0  0  0  0  0
    2.9104    3.7616    1.2424 H   0  0  0  0  0  0  0  0  0  0  0  0
    3.7107    2.4345    2.1180 H   0  0  0  0  0  0  0  0  0  0  0  0
    4.6851    3.6263    1.2245 H   0  0  0  0  0  0  0  0  0  0  0  0
   -9.1597   -3.2076   -0.3147 O   0  5  0  0  0  0  0  0  0  0  0  0
  1  2  1  0  0  0  0
  1 29  1  0  0  0  0
  1 30  1  0  0  0  0
  1 31  1  0  0  0  0
  2  6  1  0  0  0  0
  2  3  2  0  0  0  0
  3  4  1  0  0  0  0
  3 20  1  0  0  0  0
  4  5  2  0  0  0  0
  5  6  1  0  0  0  0
  5  7  1  0  0  0  0
  7  8  1  0  0  0  0
  7 32  1  0  0  0  0
  8  9  2  0  0  0  0
  8 10  1  0  0  0  0
 10 11  1  0  0  0  0
 10 16  1  0  0  0  0
 10 12  1  0  0  0  0
 12 13  1  0  0  0  0
 12 33  1  0  0  0  0
 12 34  1  0  0  0  0
 13 14  1  0  0  0  0
 13 35  1  0  0  0  0
 13 36  1  0  0  0  0
 14 15  1  0  0  0  0
 14 37  1  0  0  0  0
 14 38  1  0  0  0  0
 15 16  1  0  0  0  0
 15 39  1  0  0  0  0
 15 40  1  0  0  0  0
 16 17  1  0  0  0  0
 16 18  1  0  0  0  0
 18 19  2  0  0  0  0
 18 52  1  0  0  0  0
 20 25  2  0  0  0  0
 20 21  1  0  0  0  0
 21 22  2  0  0  0  0
 21 41  1  0  0  0  0
 22 23  1  0  0  0  0
 22 42  1  0  0  0  0
 23 24  2  0  0  0  0
 23 26  1  0  0  0  0
 24 25  1  0  0  0  0
 24 43  1  0  0  0  0
 25 44  1  0  0  0  0
 26 27  1  0  0  0  0
 26 28  1  0  0  0  0
 26 45  1  0  0  0  0
 27 46  1  0  0  0  0
 27 47  1  0  0  0  0
 27 48  1  0  0  0  0
 28 49  1  0  0  0  0
 28 50  1  0  0  0  0
 28 51  1  0  0  0  0
M  CHG  1  52  -1
M  END
$$$$
ZINC02737964
  -OEChem-08230709463D

 52 54  0     1  0  0  0  0  0999 V2000
   -7.0823   -2.8958    0.0565 C   0  0  0  0  0  0  0  0  0  0  0  0
   -5.5763   -2.8433    0.0415 C   0  0  0  0  0  0  0  0  0  0  0  0
   -4.6676   -3.8646    0.0266 C   0  0  0  0  0  0  0  0  0  0  0  0
   -3.3734   -3.5829    0.0150 N   0  0  0  0  0  0  0  0  0  0  0  0
   -2.9436   -2.3349    0.0176 C   0  0  0  0  0  0  0  0  0  0  0  0
   -4.4835   -1.4279    0.0451 S   0  0  0  0  0  0  0  0  0  0  0  0
   -1.6400   -1.8540    0.0078 N   0  0  0  0  0  0  0  0  0  0  0  0
   -1.4117   -0.5257    0.0127 C   0  0  0  0  0  0  0  0  0  0  0  0
   -2.3441    0.2498    0.0258 O   0  0  0  0  0  0  0  0  0  0  0  0
    0.0021   -0.0041    0.0020 C   0  0  1  0  0  0  0  0  0  0  0  0
    0.5293   -0.3651    0.8851 H   0  0  0  0  0  0  0  0  0  0  0  0
    0.7182   -0.4975   -1.2568 C   0  0  0  0  0  0  0  0  0  0  0  0
    2.1536    0.0321   -1.2676 C   0  0  0  0  0  0  0  0  0  0  0  0
    2.1328    1.5619   -1.2592 C   0  0  0  0  0  0  0  0  0  0  0  0
    1.4167    2.0553   -0.0004 C   0  0  0  0  0  0  0  0  0  0  0  0
   -0.0187    1.5258    0.0104 C   0  0  2  0  0  0  0  0  0  0  0  0
   -0.5459    1.8868   -0.8726 H   0  0  0  0  0  0  0  0  0  0  0  0
   -0.7240    2.0118    1.2503 C   0  0  0  0  0  0  0  0  0  0  0  0
   -1.1649    1.2162    2.0456 O   0  0  0  0  0  0  0  0  0  0  0  0
   -5.1267   -5.2749    0.0239 C   0  0  0  0  0  0  0  0  0  0  0  0
   -6.2718   -5.6392    0.7302 C   0  0  0  0  0  0  0  0  0  0  0  0
   -6.6978   -6.9519    0.7190 C   0  0  0  0  0  0  0  0  0  0  0  0
   -5.9840   -7.9075    0.0183 C   0  0  0  0  0  0  0  0  0  0  0  0
   -4.8434   -7.5528   -0.6794 C   0  0  0  0  0  0  0  0  0  0  0  0
   -4.4115   -6.2421   -0.6803 C   0  0  0  0  0  0  0  0  0  0  0  0
   -6.4505   -9.3404    0.0155 C   0  0  0  0  0  0  0  0  0  0  0  0
   -6.4743   -9.8718    1.4501 C   0  0  0  0  0  0  0  0  0  0  0  0
   -7.8576   -9.4176   -0.5803 C   0  0  0  0  0  0  0  0  0  0  0  0
   -7.4349   -2.9142    1.0877 H   0  0  0  0  0  0  0  0  0  0  0  0
   -7.4815   -2.0162   -0.4484 H   0  0  0  0  0  0  0  0  0  0  0  0
   -7.4196   -3.7950   -0.4590 H   0  0  0  0  0  0  0  0  0  0  0  0
   -0.8943   -2.4742   -0.0027 H   0  0  0  0  0  0  0  0  0  0  0  0
    0.7330   -1.5874   -1.2628 H   0  0  0  0  0  0  0  0  0  0  0  0
    0.1910   -0.1364   -2.1398 H   0  0  0  0  0  0  0  0  0  0  0  0
    2.6808   -0.3290   -0.3846 H   0  0  0  0  0  0  0  0  0  0  0  0
    2.6638   -0.3194   -2.1644 H   0  0  0  0  0  0  0  0  0  0  0  0
    3.1554    1.9392   -1.2670 H   0  0  0  0  0  0  0  0  0  0  0  0
    1.6057    1.9230   -2.1423 H   0  0  0  0  0  0  0  0  0  0  0  0
    1.4019    3.1452    0.0056 H   0  0  0  0  0  0  0  0  0  0  0  0
    1.9439    1.6943    0.8826 H   0  0  0  0  0  0  0  0  0  0  0  0
   -6.8273   -4.8948    1.2812 H   0  0  0  0  0  0  0  0  0  0  0  0
   -7.5878   -7.2343    1.2616 H   0  0  0  0  0  0  0  0  0  0  0  0
   -4.2900   -8.3031   -1.2246 H   0  0  0  0  0  0  0  0  0  0  0  0
   -3.5208   -5.9663   -1.2254 H   0  0  0  0  0  0  0  0  0  0  0  0
   -5.7685   -9.9434   -0.5840 H   0  0  0  0  0  0  0  0  0  0  0  0
   -7.1563   -9.2689    2.0496 H   0  0  0  0  0  0  0  0  0  0  0  0
   -6.8117  -10.9083    1.4481 H   0  0  0  0  0  0  0  0  0  0  0  0
   -5.4719   -9.8169    1.8746 H   0  0  0  0  0  0  0  0  0  0  0  0
   -7.8406   -9.0390   -1.6023 H   0  0  0  0  0  0  0  0  0  0  0  0
   -8.1950  -10.4540   -0.5824 H   0  0  0  0  0  0  0  0  0  0  0  0
   -8.5396   -8.8146    0.0192 H   0  0  0  0  0  0  0  0  0  0  0  0
   -0.8625    3.3285    1.4711 O   0  5  0  0  0  0  0  0  0  0  0  0
  1  2  1  0  0  0  0
  1 29  1  0  0  0  0
  1 30  1  0  0  0  0
  1 31  1  0  0  0  0
  2  6  1  0  0  0  0
  2  3  2  0  0  0  0
  3  4  1  0  0  0  0
  3 20  1  0  0  0  0
  4  5  2  0  0  0  0
  5  6  1  0  0  0  0
  5  7  1  0  0  0  0
  7  8  1  0  0  0  0
  7 32  1  0  0  0  0
  8  9  2  0  0  0  0
  8 10  1  0  0  0  0
 10 11  1  0  0  0  0
 10 16  1  0  0  0  0
 10 12  1  0  0  0  0
 12 13  1  0  0  0  0
 12 33  1  0  0  0  0
 12 34  1  0  0  0  0
 13 14  1  0  0  0  0
 13 35  1  0  0  0  0
 13 36  1  0  0  0  0
 14 15  1  0  0  0  0
 14 37  1  0  0  0  0
 14 38  1  0  0  0  0
 15 16  1  0  0  0  0
 15 39  1  0  0  0  0
 15 40  1  0  0  0  0
 16 17  1  0  0  0  0
 16 18  1  0  0  0  0
 18 19  2  0  0  0  0
 18 52  1  0  0  0  0
 20 25  2  0  0  0  0
 20 21  1  0  0  0  0
 21 22  2  0  0  0  0
 21 41  1  0  0  0  0
 22 23  1  0  0  0  0
 22 42  1  0  0  0  0
 23 24  2  0  0  0  0
 23 26  1  0  0  0  0
 24 25  1  0  0  0  0
 24 43  1  0  0  0  0
 25 44  1  0  0  0  0
 26 27  1  0  0  0  0
 26 28  1  0  0  0  0
 26 45  1  0  0  0  0
 27 46  1  0  0  0  0
 27 47  1  0  0  0  0
 27 48  1  0  0  0  0
 28 49  1  0  0  0  0
 28 50  1  0  0  0  0
 28 51  1  0  0  0  0
M  CHG  1  52  -1
M  END
$$$$
ZINC02737965
  -OEChem-08230709463D

 52 54  0     1  0  0  0  0  0999 V2000
   -2.2052    1.2177    6.0981 C   0  0  0  0  0  0  0  0  0  0  0  0
   -2.7686    2.5958    5.8646 C   0  0  0  0  0  0  0  0  0  0  0  0
   -2.7139    3.3833    4.7484 C   0  0  0  0  0  0  0  0  0  0  0  0
   -3.2914    4.5753    4.7652 N   0  0  0  0  0  0  0  0  0  0  0  0
   -3.9142    5.0200    5.8405 C   0  0  0  0  0  0  0  0  0  0  0  0
   -3.6910    3.6543    6.9719 S   0  0  0  0  0  0  0  0  0  0  0  0
   -4.5699    6.2288    6.0400 N   0  0  0  0  0  0  0  0  0  0  0  0
   -5.1491    6.4932    7.2279 C   0  0  0  0  0  0  0  0  0  0  0  0
   -5.0981    5.6762    8.1227 O   0  0  0  0  0  0  0  0  0  0  0  0
   -5.8602    7.8042    7.4442 C   0  0  2  0  0  0  0  0  0  0  0  0
   -6.6756    7.8980    6.7270 H   0  0  0  0  0  0  0  0  0  0  0  0
   -4.8740    8.9576    7.2490 C   0  0  0  0  0  0  0  0  0  0  0  0
   -3.7295    8.8260    8.2558 C   0  0  0  0  0  0  0  0  0  0  0  0
   -4.2930    8.8719    9.6774 C   0  0  0  0  0  0  0  0  0  0  0  0
   -5.2792    7.7186    9.8727 C   0  0  0  0  0  0  0  0  0  0  0  0
   -6.4237    7.8502    8.8659 C   0  0  2  0  0  0  0  0  0  0  0  0
   -6.9380    8.7984    9.0224 H   0  0  0  0  0  0  0  0  0  0  0  0
   -7.3950    6.7142    9.0582 C   0  0  0  0  0  0  0  0  0  0  0  0
   -7.6141    5.9465    8.1513 O   0  0  0  0  0  0  0  0  0  0  0  0
   -2.0197    2.9050    3.5282 C   0  0  0  0  0  0  0  0  0  0  0  0
   -2.5102    3.2405    2.2673 C   0  0  0  0  0  0  0  0  0  0  0  0
   -1.8604    2.7922    1.1354 C   0  0  0  0  0  0  0  0  0  0  0  0
   -0.7240    2.0118    1.2503 C   0  0  0  0  0  0  0  0  0  0  0  0
   -0.2359    1.6710    2.4990 C   0  0  0  0  0  0  0  0  0  0  0  0
   -0.8745    2.1180    3.6379 C   0  0  0  0  0  0  0  0  0  0  0  0
   -0.0187    1.5258    0.0104 C   0  0  0  0  0  0  0  0  0  0  0  0
    0.0021   -0.0041    0.0020 C   0  0  0  0  0  0  0  0  0  0  0  0
    1.4167    2.0553   -0.0004 C   0  0  0  0  0  0  0  0  0  0  0  0
   -1.1918    1.3012    6.4907 H   0  0  0  0  0  0  0  0  0  0  0  0
   -2.8302    0.6864    6.8158 H   0  0  0  0  0  0  0  0  0  0  0  0
   -2.1860    0.6688    5.1566 H   0  0  0  0  0  0  0  0  0  0  0  0
   -4.6107    6.8823    5.3244 H   0  0  0  0  0  0  0  0  0  0  0  0
   -4.4725    8.9248    6.2361 H   0  0  0  0  0  0  0  0  0  0  0  0
   -5.3883    9.9058    7.4054 H   0  0  0  0  0  0  0  0  0  0  0  0
   -3.0269    9.6476    8.1167 H   0  0  0  0  0  0  0  0  0  0  0  0
   -3.2152    7.8777    8.0993 H   0  0  0  0  0  0  0  0  0  0  0  0
   -4.8073    9.8202    9.8339 H   0  0  0  0  0  0  0  0  0  0  0  0
   -3.4776    8.7782   10.3947 H   0  0  0  0  0  0  0  0  0  0  0  0
   -5.6807    7.7513   10.8855 H   0  0  0  0  0  0  0  0  0  0  0  0
   -4.7649    6.7704    9.7162 H   0  0  0  0  0  0  0  0  0  0  0  0
   -3.3973    3.8497    2.1764 H   0  0  0  0  0  0  0  0  0  0  0  0
   -2.2396    3.0515    0.1579 H   0  0  0  0  0  0  0  0  0  0  0  0
    0.6489    1.0575    2.5828 H   0  0  0  0  0  0  0  0  0  0  0  0
   -0.4900    1.8550    4.6123 H   0  0  0  0  0  0  0  0  0  0  0  0
   -0.5459    1.8868   -0.8726 H   0  0  0  0  0  0  0  0  0  0  0  0
    0.5293   -0.3651    0.8851 H   0  0  0  0  0  0  0  0  0  0  0  0
   -1.0205   -0.3814    0.0098 H   0  0  0  0  0  0  0  0  0  0  0  0
    0.5123   -0.3556   -0.8948 H   0  0  0  0  0  0  0  0  0  0  0  0
    1.9269    1.7038   -0.8972 H   0  0  0  0  0  0  0  0  0  0  0  0
    1.4019    3.1452    0.0056 H   0  0  0  0  0  0  0  0  0  0  0  0
    1.9439    1.6943    0.8826 H   0  0  0  0  0  0  0  0  0  0  0  0
   -8.0169    6.5551   10.2371 O   0  5  0  0  0  0  0  0  0  0  0  0
  1  2  1  0  0  0  0
  1 29  1  0  0  0  0
  1 30  1  0  0  0  0
  1 31  1  0  0  0  0
  2  6  1  0  0  0  0
  2  3  2  0  0  0  0
  3  4  1  0  0  0  0
  3 20  1  0  0  0  0
  4  5  2  0  0  0  0
  5  6  1  0  0  0  0
  5  7  1  0  0  0  0
  7  8  1  0  0  0  0
  7 32  1  0  0  0  0
  8  9  2  0  0  0  0
  8 10  1  0  0  0  0
 10 11  1  0  0  0  0
 10 16  1  0  0  0  0
 10 12  1  0  0  0  0
 12 13  1  0  0  0  0
 12 33  1  0  0  0  0
 12 34  1  0  0  0  0
 13 14  1  0  0  0  0
 13 35  1  0  0  0  0
 13 36  1  0  0  0  0
 14 15  1  0  0  0  0
 14 37  1  0  0  0  0
 14 38  1  0  0  0  0
 15 16  1  0  0  0  0
 15 39  1  0  0  0  0
 15 40  1  0  0  0  0
 16 17  1  0  0  0  0
 16 18  1  0  0  0  0
 18 19  2  0  0  0  0
 18 52  1  0  0  0  0
 20 25  2  0  0  0  0
 20 21  1  0  0  0  0
 21 22  2  0  0  0  0
 21 41  1  0  0  0  0
 22 23  1  0  0  0  0
 22 42  1  0  0  0  0
 23 24  2  0  0  0  0
 23 26  1  0  0  0  0
 24 25  1  0  0  0  0
 24 43  1  0  0  0  0
 25 44  1  0  0  0  0
 26 27  1  0  0  0  0
 26 28  1  0  0  0  0
 26 45  1  0  0  0  0
 27 46  1  0  0  0  0
 27 47  1  0  0  0  0
 27 48  1  0  0  0  0
 28 49  1  0  0  0  0
 28 50  1  0  0  0  0
 28 51  1  0  0  0  0
M  CHG  1  52  -1
M  END
$$$$
ZINC02738262
  -OEChem-08230709463D

 55 57  0     1  0  0  0  0  0999 V2000
    6.3348    6.0008    1.2262 C   0  0  0  0  0  0  0  0  0  0  0  0
    4.8288    5.9483    1.2387 C   0  0  0  0  0  0  0  0  0  0  0  0
    3.9201    6.9696    1.2521 C   0  0  0  0  0  0  0  0  0  0  0  0
    2.6259    6.6879    1.2622 N   0  0  0  0  0  0  0  0  0  0  0  0
    2.1961    5.4399    1.2596 C   0  0  0  0  0  0  0  0  0  0  0  0
    3.7362    4.5328    1.2480 S   0  0  0  0  0  0  0  0  0  0  0  0
    0.8925    4.9590    1.2695 N   0  0  0  0  0  0  0  0  0  0  0  0
    0.6642    3.6307    1.2645 C   0  0  0  0  0  0  0  0  0  0  0  0
    1.5966    2.8552    1.2515 O   0  0  0  0  0  0  0  0  0  0  0  0
   -0.7496    3.1091    1.2752 C   0  0  1  0  0  0  0  0  0  0  0  0
   -1.2598    3.4606    2.1720 H   0  0  0  0  0  0  0  0  0  0  0  0
   -1.4896    3.6159    0.0357 C   0  0  0  0  0  0  0  0  0  0  0  0
   -0.7734    3.1225   -1.2231 C   0  0  0  0  0  0  0  0  0  0  0  0
   -0.7527    1.5927   -1.2315 C   0  0  0  0  0  0  0  0  0  0  0  0
   -0.0127    1.0858    0.0080 C   0  0  0  0  0  0  0  0  0  0  0  0
   -0.7288    1.5792    1.2668 C   0  0  1  0  0  0  0  0  0  0  0  0
   -1.7514    1.2020    1.2746 H   0  0  0  0  0  0  0  0  0  0  0  0
    0.0000    1.0800    2.4877 C   0  0  0  0  0  0  0  0  0  0  0  0
    0.4561    1.8671    3.2830 O   0  0  0  0  0  0  0  0  0  0  0  0
    4.3792    8.3799    1.2548 C   0  0  0  0  0  0  0  0  0  0  0  0
    5.5381    8.7371    1.9420 C   0  0  0  0  0  0  0  0  0  0  0  0
    5.9639   10.0498    1.9359 C   0  0  0  0  0  0  0  0  0  0  0  0
    5.2365   11.0125    1.2593 C   0  0  0  0  0  0  0  0  0  0  0  0
    4.0822   10.6649    0.5807 C   0  0  0  0  0  0  0  0  0  0  0  0
    3.6503    9.3542    0.5748 C   0  0  0  0  0  0  0  0  0  0  0  0
    5.7030   12.4455    1.2620 C   0  0  0  0  0  0  0  0  0  0  0  0
    5.0855   13.1805    2.4534 C   0  0  0  0  0  0  0  0  0  0  0  0
    5.6552   14.5986    2.5286 C   0  0  0  0  0  0  0  0  0  0  0  0
    3.5671   13.2495    2.2789 C   0  0  0  0  0  0  0  0  0  0  0  0
    6.7066    6.0077    2.2508 H   0  0  0  0  0  0  0  0  0  0  0  0
    6.7245    5.1269    0.7041 H   0  0  0  0  0  0  0  0  0  0  0  0
    6.6626    6.9057    0.7146 H   0  0  0  0  0  0  0  0  0  0  0  0
    0.1468    5.5792    1.2799 H   0  0  0  0  0  0  0  0  0  0  0  0
   -1.5044    4.7058    0.0417 H   0  0  0  0  0  0  0  0  0  0  0  0
   -2.5122    3.2386    0.0434 H   0  0  0  0  0  0  0  0  0  0  0  0
    0.2491    3.4998   -1.2308 H   0  0  0  0  0  0  0  0  0  0  0  0
   -1.3006    3.4836   -2.1062 H   0  0  0  0  0  0  0  0  0  0  0  0
   -0.2425    1.2411   -2.1283 H   0  0  0  0  0  0  0  0  0  0  0  0
   -1.7753    1.2154   -1.2238 H   0  0  0  0  0  0  0  0  0  0  0  0
    0.0021   -0.0041    0.0020 H   0  0  0  0  0  0  0  0  0  0  0  0
    1.0099    1.4631    0.0003 H   0  0  0  0  0  0  0  0  0  0  0  0
    6.1043    7.9871    2.4743 H   0  0  0  0  0  0  0  0  0  0  0  0
    6.8641   10.3269    2.4643 H   0  0  0  0  0  0  0  0  0  0  0  0
    3.5183   11.4206    0.0542 H   0  0  0  0  0  0  0  0  0  0  0  0
    2.7490    9.0839    0.0446 H   0  0  0  0  0  0  0  0  0  0  0  0
    6.7897   12.4736    1.3412 H   0  0  0  0  0  0  0  0  0  0  0  0
    5.3935   12.9300    0.3360 H   0  0  0  0  0  0  0  0  0  0  0  0
    5.3216   12.6449    3.3729 H   0  0  0  0  0  0  0  0  0  0  0  0
    5.4191   15.1342    1.6091 H   0  0  0  0  0  0  0  0  0  0  0  0
    5.2153   15.1223    3.3774 H   0  0  0  0  0  0  0  0  0  0  0  0
    6.7370   14.5494    2.6529 H   0  0  0  0  0  0  0  0  0  0  0  0
    3.3310   13.7852    1.3594 H   0  0  0  0  0  0  0  0  0  0  0  0
    3.1613   12.2393    2.2253 H   0  0  0  0  0  0  0  0  0  0  0  0
    3.1272   13.7732    3.1276 H   0  0  0  0  0  0  0  0  0  0  0  0
    0.1426   -0.2390    2.6917 O   0  5  0  0  0  0  0  0  0  0  0  0
  1  2  1  0  0  0  0
  1 30  1  0  0  0  0
  1 31  1  0  0  0  0
  1 32  1  0  0  0  0
  2  6  1  0  0  0  0
  2  3  2  0  0  0  0
  3  4  1  0  0  0  0
  3 20  1  0  0  0  0
  4  5  2  0  0  0  0
  5  6  1  0  0  0  0
  5  7  1  0  0  0  0
  7  8  1  0  0  0  0
  7 33  1  0  0  0  0
  8  9  2  0  0  0  0
  8 10  1  0  0  0  0
 10 11  1  0  0  0  0
 10 16  1  0  0  0  0
 10 12  1  0  0  0  0
 12 13  1  0  0  0  0
 12 34  1  0  0  0  0
 12 35  1  0  0  0  0
 13 14  1  0  0  0  0
 13 36  1  0  0  0  0
 13 37  1  0  0  0  0
 14 15  1  0  0  0  0
 14 38  1  0  0  0  0
 14 39  1  0  0  0  0
 15 16  1  0  0  0  0
 15 40  1  0  0  0  0
 15 41  1  0  0  0  0
 16 17  1  0  0  0  0
 16 18  1  0  0  0  0
 18 19  2  0  0  0  0
 18 55  1  0  0  0  0
 20 25  2  0  0  0  0
 20 21  1  0  0  0  0
 21 22  2  0  0  0  0
 21 42  1  0  0  0  0
 22 23  1  0  0  0  0
 22 43  1  0  0  0  0
 23 24  2  0  0  0  0
 23 26  1  0  0  0  0
 24 25  1  0  0  0  0
 24 44  1  0  0  0  0
 25 45  1  0  0  0  0
 26 27  1  0  0  0  0
 26 46  1  0  0  0  0
 26 47  1  0  0  0  0
 27 28  1  0  0  0  0
 27 29  1  0  0  0  0
 27 48  1  0  0  0  0
 28 49  1  0  0  0  0
 28 50  1  0  0  0  0
 28 51  1  0  0  0  0
 29 52  1  0  0  0  0
 29 53  1  0  0  0  0
 29 54  1  0  0  0  0
M  CHG  1  55  -1
M  END
$$$$
ZINC02738263
  -OEChem-08230709463D

 55 57  0     1  0  0  0  0  0999 V2000
   -0.5765    4.0592    5.7338 C   0  0  0  0  0  0  0  0  0  0  0  0
   -2.0258    3.6480    5.6970 C   0  0  0  0  0  0  0  0  0  0  0  0
   -2.7091    2.9437    4.7452 C   0  0  0  0  0  0  0  0  0  0  0  0
   -3.9989    2.6975    4.9199 N   0  0  0  0  0  0  0  0  0  0  0  0
   -4.6350    3.1096    6.0005 C   0  0  0  0  0  0  0  0  0  0  0  0
   -3.3273    3.9464    6.8863 S   0  0  0  0  0  0  0  0  0  0  0  0
   -5.9686    2.9423    6.3532 N   0  0  0  0  0  0  0  0  0  0  0  0
   -6.4280    3.4524    7.5130 C   0  0  0  0  0  0  0  0  0  0  0  0
   -5.6775    4.0575    8.2489 O   0  0  0  0  0  0  0  0  0  0  0  0
   -7.8743    3.2710    7.8955 C   0  0  2  0  0  0  0  0  0  0  0  0
   -8.1003    2.2071    7.9679 H   0  0  0  0  0  0  0  0  0  0  0  0
   -8.7676    3.9108    6.8307 C   0  0  0  0  0  0  0  0  0  0  0  0
  -10.2360    3.7266    7.2191 C   0  0  0  0  0  0  0  0  0  0  0  0
  -10.4939    4.3959    8.5705 C   0  0  0  0  0  0  0  0  0  0  0  0
   -9.6007    3.7561    9.6353 C   0  0  0  0  0  0  0  0  0  0  0  0
   -8.1323    3.9403    9.2469 C   0  0  1  0  0  0  0  0  0  0  0  0
   -7.9063    5.0041    9.1745 H   0  0  0  0  0  0  0  0  0  0  0  0
   -7.2525    3.3101   10.2957 C   0  0  0  0  0  0  0  0  0  0  0  0
   -6.4967    2.4173    9.9932 O   0  0  0  0  0  0  0  0  0  0  0  0
   -2.0143    2.4649    3.5255 C   0  0  0  0  0  0  0  0  0  0  0  0
   -2.3694    1.2456    2.9511 C   0  0  0  0  0  0  0  0  0  0  0  0
   -1.7197    0.8053    1.8159 C   0  0  0  0  0  0  0  0  0  0  0  0
   -0.7181    1.5718    1.2479 C   0  0  0  0  0  0  0  0  0  0  0  0
   -0.3576    2.7801    1.8168 C   0  0  0  0  0  0  0  0  0  0  0  0
   -1.0039    3.2328    2.9490 C   0  0  0  0  0  0  0  0  0  0  0  0
   -0.0127    1.0858    0.0080 C   0  0  0  0  0  0  0  0  0  0  0  0
   -0.7527    1.5927   -1.2315 C   0  0  0  0  0  0  0  0  0  0  0  0
    0.0310    1.2054   -2.4872 C   0  0  0  0  0  0  0  0  0  0  0  0
   -2.1465    0.9639   -1.2860 C   0  0  0  0  0  0  0  0  0  0  0  0
   -0.4639    5.0360    5.2633 H   0  0  0  0  0  0  0  0  0  0  0  0
   -0.2404    4.1138    6.7692 H   0  0  0  0  0  0  0  0  0  0  0  0
    0.0232    3.3253    5.1954 H   0  0  0  0  0  0  0  0  0  0  0  0
   -6.5689    2.4584    5.7646 H   0  0  0  0  0  0  0  0  0  0  0  0
   -8.5416    4.9747    6.7584 H   0  0  0  0  0  0  0  0  0  0  0  0
   -8.5838    3.4340    5.8679 H   0  0  0  0  0  0  0  0  0  0  0  0
  -10.4619    2.6628    7.2915 H   0  0  0  0  0  0  0  0  0  0  0  0
  -10.8723    4.1824    6.4605 H   0  0  0  0  0  0  0  0  0  0  0  0
  -11.5400    4.2647    8.8472 H   0  0  0  0  0  0  0  0  0  0  0  0
  -10.2679    5.4598    8.4981 H   0  0  0  0  0  0  0  0  0  0  0  0
   -9.8267    2.6922    9.7076 H   0  0  0  0  0  0  0  0  0  0  0  0
   -9.7845    4.2329   10.5980 H   0  0  0  0  0  0  0  0  0  0  0  0
   -3.1518    0.6466    3.3934 H   0  0  0  0  0  0  0  0  0  0  0  0
   -1.9941   -0.1393    1.3700 H   0  0  0  0  0  0  0  0  0  0  0  0
    0.4285    3.3722    1.3718 H   0  0  0  0  0  0  0  0  0  0  0  0
   -0.7246    4.1784    3.3898 H   0  0  0  0  0  0  0  0  0  0  0  0
    0.0021   -0.0041    0.0020 H   0  0  0  0  0  0  0  0  0  0  0  0
    1.0099    1.4631    0.0003 H   0  0  0  0  0  0  0  0  0  0  0  0
   -0.8452    2.6775   -1.1811 H   0  0  0  0  0  0  0  0  0  0  0  0
    0.1235    0.1205   -2.5376 H   0  0  0  0  0  0  0  0  0  0  0  0
   -0.4962    1.5665   -3.3703 H   0  0  0  0  0  0  0  0  0  0  0  0
    1.0239    1.6533   -2.4484 H   0  0  0  0  0  0  0  0  0  0  0  0
   -2.0540   -0.1210   -1.3364 H   0  0  0  0  0  0  0  0  0  0  0  0
   -2.7048    1.2398   -0.3914 H   0  0  0  0  0  0  0  0  0  0  0  0
   -2.6737    1.3250   -2.1691 H   0  0  0  0  0  0  0  0  0  0  0  0
   -7.3085    3.7407   11.5658 O   0  5  0  0  0  0  0  0  0  0  0  0
  1  2  1  0  0  0  0
  1 30  1  0  0  0  0
  1 31  1  0  0  0  0
  1 32  1  0  0  0  0
  2  6  1  0  0  0  0
  2  3  2  0  0  0  0
  3  4  1  0  0  0  0
  3 20  1  0  0  0  0
  4  5  2  0  0  0  0
  5  6  1  0  0  0  0
  5  7  1  0  0  0  0
  7  8  1  0  0  0  0
  7 33  1  0  0  0  0
  8  9  2  0  0  0  0
  8 10  1  0  0  0  0
 10 11  1  0  0  0  0
 10 16  1  0  0  0  0
 10 12  1  0  0  0  0
 12 13  1  0  0  0  0
 12 34  1  0  0  0  0
 12 35  1  0  0  0  0
 13 14  1  0  0  0  0
 13 36  1  0  0  0  0
 13 37  1  0  0  0  0
 14 15  1  0  0  0  0
 14 38  1  0  0  0  0
 14 39  1  0  0  0  0
 15 16  1  0  0  0  0
 15 40  1  0  0  0  0
 15 41  1  0  0  0  0
 16 17  1  0  0  0  0
 16 18  1  0  0  0  0
 18 19  2  0  0  0  0
 18 55  1  0  0  0  0
 20 25  2  0  0  0  0
 20 21  1  0  0  0  0
 21 22  2  0  0  0  0
 21 42  1  0  0  0  0
 22 23  1  0  0  0  0
 22 43  1  0  0  0  0
 23 24  2  0  0  0  0
 23 26  1  0  0  0  0
 24 25  1  0  0  0  0
 24 44  1  0  0  0  0
 25 45  1  0  0  0  0
 26 27  1  0  0  0  0
 26 46  1  0  0  0  0
 26 47  1  0  0  0  0
 27 28  1  0  0  0  0
 27 29  1  0  0  0  0
 27 48  1  0  0  0  0
 28 49  1  0  0  0  0
 28 50  1  0  0  0  0
 28 51  1  0  0  0  0
 29 52  1  0  0  0  0
 29 53  1  0  0  0  0
 29 54  1  0  0  0  0
M  CHG  1  55  -1
M  END
$$$$
ZINC02738264
  -OEChem-08230709463D

 55 57  0     1  0  0  0  0  0999 V2000
   -7.0823   -2.8958    0.0565 C   0  0  0  0  0  0  0  0  0  0  0  0
   -5.5763   -2.8433    0.0415 C   0  0  0  0  0  0  0  0  0  0  0  0
   -4.6676   -3.8646    0.0266 C   0  0  0  0  0  0  0  0  0  0  0  0
   -3.3734   -3.5829    0.0150 N   0  0  0  0  0  0  0  0  0  0  0  0
   -2.9436   -2.3349    0.0176 C   0  0  0  0  0  0  0  0  0  0  0  0
   -4.4835   -1.4279    0.0451 S   0  0  0  0  0  0  0  0  0  0  0  0
   -1.6400   -1.8540    0.0078 N   0  0  0  0  0  0  0  0  0  0  0  0
   -1.4117   -0.5257    0.0127 C   0  0  0  0  0  0  0  0  0  0  0  0
   -2.3441    0.2498    0.0258 O   0  0  0  0  0  0  0  0  0  0  0  0
    0.0021   -0.0041    0.0020 C   0  0  1  0  0  0  0  0  0  0  0  0
    0.5293   -0.3651    0.8851 H   0  0  0  0  0  0  0  0  0  0  0  0
    0.7182   -0.4975   -1.2568 C   0  0  0  0  0  0  0  0  0  0  0  0
    2.1536    0.0321   -1.2676 C   0  0  0  0  0  0  0  0  0  0  0  0
    2.1328    1.5619   -1.2592 C   0  0  0  0  0  0  0  0  0  0  0  0
    1.4167    2.0553   -0.0004 C   0  0  0  0  0  0  0  0  0  0  0  0
   -0.0187    1.5258    0.0104 C   0  0  2  0  0  0  0  0  0  0  0  0
   -0.5459    1.8868   -0.8726 H   0  0  0  0  0  0  0  0  0  0  0  0
   -0.7240    2.0118    1.2503 C   0  0  0  0  0  0  0  0  0  0  0  0
   -1.1649    1.2162    2.0456 O   0  0  0  0  0  0  0  0  0  0  0  0
   -5.1267   -5.2749    0.0239 C   0  0  0  0  0  0  0  0  0  0  0  0
   -6.2718   -5.6392    0.7302 C   0  0  0  0  0  0  0  0  0  0  0  0
   -6.6978   -6.9519    0.7190 C   0  0  0  0  0  0  0  0  0  0  0  0
   -5.9840   -7.9075    0.0183 C   0  0  0  0  0  0  0  0  0  0  0  0
   -4.8434   -7.5528   -0.6794 C   0  0  0  0  0  0  0  0  0  0  0  0
   -4.4115   -6.2421   -0.6803 C   0  0  0  0  0  0  0  0  0  0  0  0
   -6.4505   -9.3404    0.0155 C   0  0  0  0  0  0  0  0  0  0  0  0
   -5.8097  -10.0877    1.1869 C   0  0  0  0  0  0  0  0  0  0  0  0
   -6.3779  -11.5064    1.2588 C   0  0  0  0  0  0  0  0  0  0  0  0
   -4.2950  -10.1547    0.9817 C   0  0  0  0  0  0  0  0  0  0  0  0
   -7.4349   -2.9142    1.0877 H   0  0  0  0  0  0  0  0  0  0  0  0
   -7.4815   -2.0162   -0.4484 H   0  0  0  0  0  0  0  0  0  0  0  0
   -7.4196   -3.7950   -0.4590 H   0  0  0  0  0  0  0  0  0  0  0  0
   -0.8943   -2.4742   -0.0027 H   0  0  0  0  0  0  0  0  0  0  0  0
    0.7330   -1.5874   -1.2628 H   0  0  0  0  0  0  0  0  0  0  0  0
    0.1910   -0.1364   -2.1398 H   0  0  0  0  0  0  0  0  0  0  0  0
    2.6808   -0.3290   -0.3846 H   0  0  0  0  0  0  0  0  0  0  0  0
    2.6638   -0.3194   -2.1644 H   0  0  0  0  0  0  0  0  0  0  0  0
    3.1554    1.9392   -1.2670 H   0  0  0  0  0  0  0  0  0  0  0  0
    1.6057    1.9230   -2.1423 H   0  0  0  0  0  0  0  0  0  0  0  0
    1.4019    3.1452    0.0056 H   0  0  0  0  0  0  0  0  0  0  0  0
    1.9439    1.6943    0.8826 H   0  0  0  0  0  0  0  0  0  0  0  0
   -6.8273   -4.8948    1.2812 H   0  0  0  0  0  0  0  0  0  0  0  0
   -7.5878   -7.2343    1.2616 H   0  0  0  0  0  0  0  0  0  0  0  0
   -4.2900   -8.3031   -1.2246 H   0  0  0  0  0  0  0  0  0  0  0  0
   -3.5208   -5.9663   -1.2254 H   0  0  0  0  0  0  0  0  0  0  0  0
   -7.5355   -9.3695    0.1159 H   0  0  0  0  0  0  0  0  0  0  0  0
   -6.1594   -9.8155   -0.9213 H   0  0  0  0  0  0  0  0  0  0  0  0
   -6.0276   -9.5615    2.1163 H   0  0  0  0  0  0  0  0  0  0  0  0
   -6.1601  -12.0326    0.3294 H   0  0  0  0  0  0  0  0  0  0  0  0
   -5.9215  -12.0388    2.0933 H   0  0  0  0  0  0  0  0  0  0  0  0
   -7.4570  -11.4587    1.4050 H   0  0  0  0  0  0  0  0  0  0  0  0
   -3.8903   -9.1439    0.9305 H   0  0  0  0  0  0  0  0  0  0  0  0
   -3.8386  -10.6870    1.8162 H   0  0  0  0  0  0  0  0  0  0  0  0
   -4.0772  -10.6809    0.0523 H   0  0  0  0  0  0  0  0  0  0  0  0
   -0.8625    3.3285    1.4711 O   0  5  0  0  0  0  0  0  0  0  0  0
  1  2  1  0  0  0  0
  1 30  1  0  0  0  0
  1 31  1  0  0  0  0
  1 32  1  0  0  0  0
  2  6  1  0  0  0  0
  2  3  2  0  0  0  0
  3  4  1  0  0  0  0
  3 20  1  0  0  0  0
  4  5  2  0  0  0  0
  5  6  1  0  0  0  0
  5  7  1  0  0  0  0
  7  8  1  0  0  0  0
  7 33  1  0  0  0  0
  8  9  2  0  0  0  0
  8 10  1  0  0  0  0
 10 11  1  0  0  0  0
 10 16  1  0  0  0  0
 10 12  1  0  0  0  0
 12 13  1  0  0  0  0
 12 34  1  0  0  0  0
 12 35  1  0  0  0  0
 13 14  1  0  0  0  0
 13 36  1  0  0  0  0
 13 37  1  0  0  0  0
 14 15  1  0  0  0  0
 14 38  1  0  0  0  0
 14 39  1  0  0  0  0
 15 16  1  0  0  0  0
 15 40  1  0  0  0  0
 15 41  1  0  0  0  0
 16 17  1  0  0  0  0
 16 18  1  0  0  0  0
 18 19  2  0  0  0  0
 18 55  1  0  0  0  0
 20 25  2  0  0  0  0
 20 21  1  0  0  0  0
 21 22  2  0  0  0  0
 21 42  1  0  0  0  0
 22 23  1  0  0  0  0
 22 43  1  0  0  0  0
 23 24  2  0  0  0  0
 23 26  1  0  0  0  0
 24 25  1  0  0  0  0
 24 44  1  0  0  0  0
 25 45  1  0  0  0  0
 26 27  1  0  0  0  0
 26 46  1  0  0  0  0
 26 47  1  0  0  0  0
 27 28  1  0  0  0  0
 27 29  1  0  0  0  0
 27 48  1  0  0  0  0
 28 49  1  0  0  0  0
 28 50  1  0  0  0  0
 28 51  1  0  0  0  0
 29 52  1  0  0  0  0
 29 53  1  0  0  0  0
 29 54  1  0  0  0  0
M  CHG  1  55  -1
M  END
$$$$
ZINC02738265
  -OEChem-08230709463D

 55 57  0     1  0  0  0  0  0999 V2000
   -0.5729    4.0495    5.7384 C   0  0  0  0  0  0  0  0  0  0  0  0
   -2.0236    3.6432    5.6997 C   0  0  0  0  0  0  0  0  0  0  0  0
   -2.7085    2.9432    4.7457 C   0  0  0  0  0  0  0  0  0  0  0  0
   -3.9967    2.6915    4.9241 N   0  0  0  0  0  0  0  0  0  0  0  0
   -4.6335    3.1080    6.0026 C   0  0  0  0  0  0  0  0  0  0  0  0
   -3.3256    3.9457    6.8873 S   0  0  0  0  0  0  0  0  0  0  0  0
   -5.9666    2.9395    6.3565 N   0  0  0  0  0  0  0  0  0  0  0  0
   -6.4253    3.4491    7.5168 C   0  0  0  0  0  0  0  0  0  0  0  0
   -5.6746    4.0546    8.2521 O   0  0  0  0  0  0  0  0  0  0  0  0
   -7.8711    3.2664    7.9006 C   0  0  2  0  0  0  0  0  0  0  0  0
   -8.0962    2.2024    7.9730 H   0  0  0  0  0  0  0  0  0  0  0  0
   -8.7659    3.9057    6.8368 C   0  0  0  0  0  0  0  0  0  0  0  0
   -8.4500    5.3992    6.7351 C   0  0  0  0  0  0  0  0  0  0  0  0
   -8.7073    6.0681    8.0869 C   0  0  0  0  0  0  0  0  0  0  0  0
   -7.8125    5.4288    9.1507 C   0  0  0  0  0  0  0  0  0  0  0  0
   -8.1284    3.9353    9.2524 C   0  0  2  0  0  0  0  0  0  0  0  0
   -9.1741    3.8031    9.5300 H   0  0  0  0  0  0  0  0  0  0  0  0
   -7.2471    3.3056   10.3002 C   0  0  0  0  0  0  0  0  0  0  0  0
   -6.4908    2.4135    9.9969 O   0  0  0  0  0  0  0  0  0  0  0  0
   -2.0143    2.4649    3.5255 C   0  0  0  0  0  0  0  0  0  0  0  0
   -2.3694    1.2456    2.9511 C   0  0  0  0  0  0  0  0  0  0  0  0
   -1.7197    0.8053    1.8159 C   0  0  0  0  0  0  0  0  0  0  0  0
   -0.7181    1.5718    1.2479 C   0  0  0  0  0  0  0  0  0  0  0  0
   -0.3575    2.7801    1.8168 C   0  0  0  0  0  0  0  0  0  0  0  0
   -1.0039    3.2328    2.9490 C   0  0  0  0  0  0  0  0  0  0  0  0
   -0.0127    1.0858    0.0080 C   0  0  0  0  0  0  0  0  0  0  0  0
   -0.7527    1.5927   -1.2315 C   0  0  0  0  0  0  0  0  0  0  0  0
   -0.6660    3.1191   -1.2886 C   0  0  0  0  0  0  0  0  0  0  0  0
   -0.1114    0.9981   -2.4870 C   0  0  0  0  0  0  0  0  0  0  0  0
   -0.4568    5.0270    5.2701 H   0  0  0  0  0  0  0  0  0  0  0  0
   -0.2374    4.1007    6.7742 H   0  0  0  0  0  0  0  0  0  0  0  0
    0.0248    3.3149    5.1988 H   0  0  0  0  0  0  0  0  0  0  0  0
   -6.5670    2.4552    5.7684 H   0  0  0  0  0  0  0  0  0  0  0  0
   -8.5826    3.4292    5.8738 H   0  0  0  0  0  0  0  0  0  0  0  0
   -9.8116    3.7735    7.1144 H   0  0  0  0  0  0  0  0  0  0  0  0
   -9.0875    5.8547    5.9773 H   0  0  0  0  0  0  0  0  0  0  0  0
   -7.4043    5.5314    6.4575 H   0  0  0  0  0  0  0  0  0  0  0  0
   -9.7530    5.9360    8.3645 H   0  0  0  0  0  0  0  0  0  0  0  0
   -8.4822    7.1322    8.0145 H   0  0  0  0  0  0  0  0  0  0  0  0
   -7.9958    5.9054   10.1138 H   0  0  0  0  0  0  0  0  0  0  0  0
   -6.7668    5.5610    8.8731 H   0  0  0  0  0  0  0  0  0  0  0  0
   -3.1513    0.6463    3.3938 H   0  0  0  0  0  0  0  0  0  0  0  0
   -1.9941   -0.1393    1.3700 H   0  0  0  0  0  0  0  0  0  0  0  0
    0.4285    3.3722    1.3718 H   0  0  0  0  0  0  0  0  0  0  0  0
   -0.7247    4.1784    3.3898 H   0  0  0  0  0  0  0  0  0  0  0  0
    0.0021   -0.0041    0.0020 H   0  0  0  0  0  0  0  0  0  0  0  0
    1.0099    1.4631    0.0003 H   0  0  0  0  0  0  0  0  0  0  0  0
   -1.7985    1.2898   -1.1795 H   0  0  0  0  0  0  0  0  0  0  0  0
    0.3797    3.4220   -1.3406 H   0  0  0  0  0  0  0  0  0  0  0  0
   -1.1932    3.4802   -2.1717 H   0  0  0  0  0  0  0  0  0  0  0  0
   -1.1229    3.5427   -0.3942 H   0  0  0  0  0  0  0  0  0  0  0  0
   -0.1731   -0.0894   -2.4463 H   0  0  0  0  0  0  0  0  0  0  0  0
   -0.6386    1.3592   -3.3700 H   0  0  0  0  0  0  0  0  0  0  0  0
    0.9344    1.3010   -2.5390 H   0  0  0  0  0  0  0  0  0  0  0  0
   -7.3022    3.7359   11.5705 O   0  5  0  0  0  0  0  0  0  0  0  0
  1  2  1  0  0  0  0
  1 30  1  0  0  0  0
  1 31  1  0  0  0  0
  1 32  1  0  0  0  0
  2  6  1  0  0  0  0
  2  3  2  0  0  0  0
  3  4  1  0  0  0  0
  3 20  1  0  0  0  0
  4  5  2  0  0  0  0
  5  6  1  0  0  0  0
  5  7  1  0  0  0  0
  7  8  1  0  0  0  0
  7 33  1  0  0  0  0
  8  9  2  0  0  0  0
  8 10  1  0  0  0  0
 10 11  1  0  0  0  0
 10 16  1  0  0  0  0
 10 12  1  0  0  0  0
 12 13  1  0  0  0  0
 12 34  1  0  0  0  0
 12 35  1  0  0  0  0
 13 14  1  0  0  0  0
 13 36  1  0  0  0  0
 13 37  1  0  0  0  0
 14 15  1  0  0  0  0
 14 38  1  0  0  0  0
 14 39  1  0  0  0  0
 15 16  1  0  0  0  0
 15 40  1  0  0  0  0
 15 41  1  0  0  0  0
 16 17  1  0  0  0  0
 16 18  1  0  0  0  0
 18 19  2  0  0  0  0
 18 55  1  0  0  0  0
 20 25  2  0  0  0  0
 20 21  1  0  0  0  0
 21 22  2  0  0  0  0
 21 42  1  0  0  0  0
 22 23  1  0  0  0  0
 22 43  1  0  0  0  0
 23 24  2  0  0  0  0
 23 26  1  0  0  0  0
 24 25  1  0  0  0  0
 24 44  1  0  0  0  0
 25 45  1  0  0  0  0
 26 27  1  0  0  0  0
 26 46  1  0  0  0  0
 26 47  1  0  0  0  0
 27 28  1  0  0  0  0
 27 29  1  0  0  0  0
 27 48  1  0  0  0  0
 28 49  1  0  0  0  0
 28 50  1  0  0  0  0
 28 51  1  0  0  0  0
 29 52  1  0  0  0  0
 29 53  1  0  0  0  0
 29 54  1  0  0  0  0
M  CHG  1  55  -1
M  END
$$$$
ZINC02739067
  -OEChem-08230709463D

 51 53  0     1  0  0  0  0  0999 V2000
   -2.9373   -3.1278    1.0198 C   0  0  0  0  0  0  0  0  0  0  0  0
   -1.7466   -3.3784    0.0924 C   0  0  0  0  0  0  0  0  0  0  0  0
   -0.6540   -2.3452    0.3745 C   0  0  1  0  0  0  0  0  0  0  0  0
   -0.3866   -2.3725    1.4309 H   0  0  0  0  0  0  0  0  0  0  0  0
    0.5805   -2.6583   -0.4758 C   0  0  0  0  0  0  0  0  0  0  0  0
    1.7562   -1.7894   -0.0255 C   0  0  0  0  0  0  0  0  0  0  0  0
    1.3120   -0.3319   -0.0125 C   0  0  0  0  0  0  0  0  0  0  0  0
    0.0021   -0.0041    0.0020 C   0  0  0  0  0  0  0  0  0  0  0  0
   -0.0219    1.7661    0.0118 S   0  0  0  0  0  0  0  0  0  0  0  0
    1.6839    2.0695   -0.0029 C   0  0  0  0  0  0  0  0  0  0  0  0
    2.2319    0.7935   -0.0150 C   0  0  0  0  0  0  0  0  0  0  0  0
    3.6819    0.5895   -0.0303 C   0  0  0  0  0  0  0  0  0  0  0  0
    4.2739    0.5108   -1.0900 O   0  0  0  0  0  0  0  0  0  0  0  0
    4.3610    0.4889    1.1307 O   0  0  0  0  0  0  0  0  0  0  0  0
    5.7960    0.2873    1.0397 C   0  0  0  0  0  0  0  0  0  0  0  0
    2.3418    3.2894   -0.0035 N   0  0  0  0  0  0  0  0  0  0  0  0
    1.6344    4.4366    0.0090 C   0  0  0  0  0  0  0  0  0  0  0  0
    0.4222    4.4013    0.0207 O   0  0  0  0  0  0  0  0  0  0  0  0
    2.3497    5.7630    0.0084 C   0  0  1  0  0  0  0  0  0  0  0  0
    2.9784    5.8406    0.8955 H   0  0  0  0  0  0  0  0  0  0  0  0
    3.2158    5.8797   -1.2477 C   0  0  0  0  0  0  0  0  0  0  0  0
    3.7222    7.2844   -1.3977 C   0  0  0  0  0  0  0  0  0  0  0  0
    3.2201    8.3060   -0.7814 C   0  0  0  0  0  0  0  0  0  0  0  0
    2.0676    8.2271    0.1765 C   0  0  0  0  0  0  0  0  0  0  0  0
    1.3229    6.9025   -0.0027 C   0  0  2  0  0  0  0  0  0  0  0  0
    0.7911    6.9073   -0.9541 H   0  0  0  0  0  0  0  0  0  0  0  0
    0.3449    6.7141    1.1283 C   0  0  0  0  0  0  0  0  0  0  0  0
    0.4541    5.7665    1.8699 O   0  0  0  0  0  0  0  0  0  0  0  0
   -1.1641   -0.9437    0.0088 C   0  0  0  0  0  0  0  0  0  0  0  0
   -2.6144   -3.2145    2.0572 H   0  0  0  0  0  0  0  0  0  0  0  0
   -3.3302   -2.1263    0.8441 H   0  0  0  0  0  0  0  0  0  0  0  0
   -3.7157   -3.8639    0.8188 H   0  0  0  0  0  0  0  0  0  0  0  0
   -2.0695   -3.2917   -0.9451 H   0  0  0  0  0  0  0  0  0  0  0  0
   -1.3537   -4.3799    0.2681 H   0  0  0  0  0  0  0  0  0  0  0  0
    0.8425   -3.7100   -0.3604 H   0  0  0  0  0  0  0  0  0  0  0  0
    0.3599   -2.4542   -1.5235 H   0  0  0  0  0  0  0  0  0  0  0  0
    2.0668   -2.0856    0.9765 H   0  0  0  0  0  0  0  0  0  0  0  0
    2.5879   -1.9118   -0.7193 H   0  0  0  0  0  0  0  0  0  0  0  0
    5.9995   -0.6377    0.5002 H   0  0  0  0  0  0  0  0  0  0  0  0
    6.2476    1.1249    0.5079 H   0  0  0  0  0  0  0  0  0  0  0  0
    6.2184    0.2236    2.0425 H   0  0  0  0  0  0  0  0  0  0  0  0
    3.3113    3.3176   -0.0128 H   0  0  0  0  0  0  0  0  0  0  0  0
    4.0620    5.1972   -1.1678 H   0  0  0  0  0  0  0  0  0  0  0  0
    2.6217    5.6145   -2.1222 H   0  0  0  0  0  0  0  0  0  0  0  0
    4.5578    7.4534   -2.0608 H   0  0  0  0  0  0  0  0  0  0  0  0
    3.6576    9.2755   -0.9685 H   0  0  0  0  0  0  0  0  0  0  0  0
    2.4416    8.2957    1.1981 H   0  0  0  0  0  0  0  0  0  0  0  0
    1.3825    9.0532   -0.0137 H   0  0  0  0  0  0  0  0  0  0  0  0
   -1.8961   -0.6153    0.7466 H   0  0  0  0  0  0  0  0  0  0  0  0
   -1.6235   -0.9659   -0.9794 H   0  0  0  0  0  0  0  0  0  0  0  0
   -0.6476    7.5990    1.3117 O   0  5  0  0  0  0  0  0  0  0  0  0
  1  2  1  0  0  0  0
  1 30  1  0  0  0  0
  1 31  1  0  0  0  0
  1 32  1  0  0  0  0
  2  3  1  0  0  0  0
  2 33  1  0  0  0  0
  2 34  1  0  0  0  0
  3  4  1  0  0  0  0
  3 29  1  0  0  0  0
  3  5  1  0  0  0  0
  5  6  1  0  0  0  0
  5 35  1  0  0  0  0
  5 36  1  0  0  0  0
  6  7  1  0  0  0  0
  6 37  1  0  0  0  0
  6 38  1  0  0  0  0
  7 11  1  0  0  0  0
  7  8  2  0  0  0  0
  8  9  1  0  0  0  0
  8 29  1  0  0  0  0
  9 10  1  0  0  0  0
 10 11  2  0  0  0  0
 10 16  1  0  0  0  0
 11 12  1  0  0  0  0
 12 13  2  0  0  0  0
 12 14  1  0  0  0  0
 14 15  1  0  0  0  0
 15 39  1  0  0  0  0
 15 40  1  0  0  0  0
 15 41  1  0  0  0  0
 16 17  1  0  0  0  0
 16 42  1  0  0  0  0
 17 18  2  0  0  0  0
 17 19  1  0  0  0  0
 19 20  1  0  0  0  0
 19 25  1  0  0  0  0
 19 21  1  0  0  0  0
 21 22  1  0  0  0  0
 21 43  1  0  0  0  0
 21 44  1  0  0  0  0
 22 23  2  0  0  0  0
 22 45  1  0  0  0  0
 23 24  1  0  0  0  0
 23 46  1  0  0  0  0
 24 25  1  0  0  0  0
 24 47  1  0  0  0  0
 24 48  1  0  0  0  0
 25 26  1  0  0  0  0
 25 27  1  0  0  0  0
 27 28  2  0  0  0  0
 27 51  1  0  0  0  0
 29 49  1  0  0  0  0
 29 50  1  0  0  0  0
M  CHG  1  51  -1
M  END
$$$$
ZINC02740539
  -OEChem-08230709463D

 57 59  0     1  0  0  0  0  0999 V2000
    1.6225  -10.6711   -1.4685 C   0  0  0  0  0  0  0  0  0  0  0  0
    0.7650  -10.3606   -2.6970 C   0  0  0  0  0  0  0  0  0  0  0  0
   -0.7077  -10.6129   -2.3679 C   0  0  0  0  0  0  0  0  0  0  0  0
    1.1903  -11.2630   -3.8570 C   0  0  0  0  0  0  0  0  0  0  0  0
    0.9551   -8.8954   -3.0944 C   0  0  2  0  0  0  0  0  0  0  0  0
    0.3409   -8.6685   -3.9659 H   0  0  0  0  0  0  0  0  0  0  0  0
    2.4286   -8.6400   -3.4244 C   0  0  0  0  0  0  0  0  0  0  0  0
    2.5878   -7.2558   -4.0557 C   0  0  0  0  0  0  0  0  0  0  0  0
    1.9222   -6.2252   -3.1519 C   0  0  0  0  0  0  0  0  0  0  0  0
    1.0203   -6.5979   -2.2185 C   0  0  0  0  0  0  0  0  0  0  0  0
    0.5387   -5.0896   -1.4263 S   0  0  0  0  0  0  0  0  0  0  0  0
    1.5135   -3.9763   -2.3274 C   0  0  0  0  0  0  0  0  0  0  0  0
    2.1942   -4.7989   -3.2154 C   0  0  0  0  0  0  0  0  0  0  0  0
    3.1504   -4.2499   -4.1791 C   0  0  0  0  0  0  0  0  0  0  0  0
    4.3232   -4.1385   -3.8762 O   0  0  0  0  0  0  0  0  0  0  0  0
    2.7306   -3.8679   -5.4027 O   0  0  0  0  0  0  0  0  0  0  0  0
    3.7334   -3.3327   -6.3063 C   0  0  0  0  0  0  0  0  0  0  0  0
    1.5980   -2.5995   -2.1911 N   0  0  0  0  0  0  0  0  0  0  0  0
    0.8524   -1.9672   -1.2633 C   0  0  0  0  0  0  0  0  0  0  0  0
    0.1076   -2.6029   -0.5477 O   0  0  0  0  0  0  0  0  0  0  0  0
    0.9443   -0.4704   -1.1150 C   0  0  2  0  0  0  0  0  0  0  0  0
    0.6675    0.0114   -2.0528 H   0  0  0  0  0  0  0  0  0  0  0  0
    2.3742   -0.0776   -0.7374 C   0  0  0  0  0  0  0  0  0  0  0  0
    2.4233    1.3657   -0.3296 C   0  0  0  0  0  0  0  0  0  0  0  0
    1.3830    2.0620   -0.0001 C   0  0  0  0  0  0  0  0  0  0  0  0
   -0.0187    1.5260    0.0104 C   0  0  0  0  0  0  0  0  0  0  0  0
    0.0021   -0.0041    0.0020 C   0  0  1  0  0  0  0  0  0  0  0  0
    0.3631   -0.3709    0.9628 H   0  0  0  0  0  0  0  0  0  0  0  0
   -1.3872   -0.5281   -0.2554 C   0  0  0  0  0  0  0  0  0  0  0  0
   -1.6020   -1.2216   -1.2213 O   0  0  0  0  0  0  0  0  0  0  0  0
    0.5453   -7.9877   -1.9256 C   0  0  0  0  0  0  0  0  0  0  0  0
    1.3196  -10.0282   -0.6420 H   0  0  0  0  0  0  0  0  0  0  0  0
    1.4871  -11.7149   -1.1853 H   0  0  0  0  0  0  0  0  0  0  0  0
    2.6717  -10.4914   -1.7029 H   0  0  0  0  0  0  0  0  0  0  0  0
   -1.3186  -10.3917   -3.2431 H   0  0  0  0  0  0  0  0  0  0  0  0
   -0.8431  -11.6567   -2.0847 H   0  0  0  0  0  0  0  0  0  0  0  0
   -1.0106   -9.9700   -1.5415 H   0  0  0  0  0  0  0  0  0  0  0  0
    2.2395  -11.0833   -4.0914 H   0  0  0  0  0  0  0  0  0  0  0  0
    1.0549  -12.3068   -3.5738 H   0  0  0  0  0  0  0  0  0  0  0  0
    0.5794  -11.0418   -4.7322 H   0  0  0  0  0  0  0  0  0  0  0  0
    2.7801   -9.3993   -4.1230 H   0  0  0  0  0  0  0  0  0  0  0  0
    3.0186   -8.6907   -2.5093 H   0  0  0  0  0  0  0  0  0  0  0  0
    2.1113   -7.2442   -5.0359 H   0  0  0  0  0  0  0  0  0  0  0  0
    3.6467   -7.0196   -4.1613 H   0  0  0  0  0  0  0  0  0  0  0  0
    3.2637   -3.0651   -7.2528 H   0  0  0  0  0  0  0  0  0  0  0  0
    4.1867   -2.4465   -5.8622 H   0  0  0  0  0  0  0  0  0  0  0  0
    4.5024   -4.0848   -6.4821 H   0  0  0  0  0  0  0  0  0  0  0  0
    2.1937   -2.0911   -2.7634 H   0  0  0  0  0  0  0  0  0  0  0  0
    2.7126   -0.6990    0.0917 H   0  0  0  0  0  0  0  0  0  0  0  0
    3.0299   -0.2334   -1.5941 H   0  0  0  0  0  0  0  0  0  0  0  0
    3.3865    1.8538   -0.3094 H   0  0  0  0  0  0  0  0  0  0  0  0
    1.5331    3.0929    0.2847 H   0  0  0  0  0  0  0  0  0  0  0  0
   -0.5494    1.8850   -0.8714 H   0  0  0  0  0  0  0  0  0  0  0  0
   -0.5324    1.8755    0.9060 H   0  0  0  0  0  0  0  0  0  0  0  0
   -0.5397   -7.9906   -1.8213 H   0  0  0  0  0  0  0  0  0  0  0  0
    1.0037   -8.3463   -1.0040 H   0  0  0  0  0  0  0  0  0  0  0  0
   -2.3861   -0.2245    0.5882 O   0  5  0  0  0  0  0  0  0  0  0  0
  1  2  1  0  0  0  0
  1 32  1  0  0  0  0
  1 33  1  0  0  0  0
  1 34  1  0  0  0  0
  2  3  1  0  0  0  0
  2  4  1  0  0  0  0
  2  5  1  0  0  0  0
  3 35  1  0  0  0  0
  3 36  1  0  0  0  0
  3 37  1  0  0  0  0
  4 38  1  0  0  0  0
  4 39  1  0  0  0  0
  4 40  1  0  0  0  0
  5  6  1  0  0  0  0
  5 31  1  0  0  0  0
  5  7  1  0  0  0  0
  7  8  1  0  0  0  0
  7 41  1  0  0  0  0
  7 42  1  0  0  0  0
  8  9  1  0  0  0  0
  8 43  1  0  0  0  0
  8 44  1  0  0  0  0
  9 13  1  0  0  0  0
  9 10  2  0  0  0  0
 10 11  1  0  0  0  0
 10 31  1  0  0  0  0
 11 12  1  0  0  0  0
 12 13  2  0  0  0  0
 12 18  1  0  0  0  0
 13 14  1  0  0  0  0
 14 15  2  0  0  0  0
 14 16  1  0  0  0  0
 16 17  1  0  0  0  0
 17 45  1  0  0  0  0
 17 46  1  0  0  0  0
 17 47  1  0  0  0  0
 18 19  1  0  0  0  0
 18 48  1  0  0  0  0
 19 20  2  0  0  0  0
 19 21  1  0  0  0  0
 21 22  1  0  0  0  0
 21 27  1  0  0  0  0
 21 23  1  0  0  0  0
 23 24  1  0  0  0  0
 23 49  1  0  0  0  0
 23 50  1  0  0  0  0
 24 25  2  0  0  0  0
 24 51  1  0  0  0  0
 25 26  1  0  0  0  0
 25 52  1  0  0  0  0
 26 27  1  0  0  0  0
 26 53  1  0  0  0  0
 26 54  1  0  0  0  0
 27 28  1  0  0  0  0
 27 29  1  0  0  0  0
 29 30  2  0  0  0  0
 29 57  1  0  0  0  0
 31 55  1  0  0  0  0
 31 56  1  0  0  0  0
M  CHG  1  57  -1
M  END
$$$$
ZINC02740908
  -OEChem-08230709463D

 51 52  0     1  0  0  0  0  0999 V2000
   -2.4822   12.3637    0.8540 C   0  0  0  0  0  0  0  0  0  0  0  0
   -3.7576   11.5576    1.1080 C   0  0  0  0  0  0  0  0  0  0  0  0
   -4.9055   12.1466    0.2856 C   0  0  0  0  0  0  0  0  0  0  0  0
   -4.1119   11.6188    2.5951 C   0  0  0  0  0  0  0  0  0  0  0  0
   -3.5423   10.1756    0.7182 O   0  0  0  0  0  0  0  0  0  0  0  0
   -2.5630    9.5097    1.3500 C   0  0  0  0  0  0  0  0  0  0  0  0
   -1.9073   10.0633    2.2006 O   0  0  0  0  0  0  0  0  0  0  0  0
   -2.2813    8.0716    0.9984 C   0  0  2  0  0  0  0  0  0  0  0  0
   -3.1725    7.4672    1.1671 H   0  0  0  0  0  0  0  0  0  0  0  0
   -1.1239    7.5431    1.8556 C   0  0  2  0  0  0  0  0  0  0  0  0
   -1.3149    7.7711    2.9042 H   0  0  0  0  0  0  0  0  0  0  0  0
    0.1234    8.1816    1.4373 N   0  0  0  0  0  0  0  0  0  0  0  0
    0.3441    8.5695    0.1740 C   0  0  0  0  0  0  0  0  0  0  0  0
    1.4317    9.0295   -0.1157 O   0  0  0  0  0  0  0  0  0  0  0  0
   -0.5936    8.4692   -0.7861 N   0  0  0  0  0  0  0  0  0  0  0  0
   -1.8583    7.9704   -0.4537 C   0  0  0  0  0  0  0  0  0  0  0  0
   -2.6482    7.4356   -1.3647 C   0  0  0  0  0  0  0  0  0  0  0  0
   -1.0084    6.0510    1.6788 C   0  0  0  0  0  0  0  0  0  0  0  0
   -0.3730    5.5357    0.5643 C   0  0  0  0  0  0  0  0  0  0  0  0
   -0.2598    4.1677    0.4002 C   0  0  0  0  0  0  0  0  0  0  0  0
   -0.7931    3.3097    1.3486 C   0  0  0  0  0  0  0  0  0  0  0  0
   -1.4322    3.8284    2.4705 C   0  0  0  0  0  0  0  0  0  0  0  0
   -1.5376    5.2006    2.6316 C   0  0  0  0  0  0  0  0  0  0  0  0
   -1.9527    2.9904    3.4067 O   0  0  0  0  0  0  0  0  0  0  0  0
   -2.5946    3.5934    4.5321 C   0  0  0  0  0  0  0  0  0  0  0  0
   -0.6872    1.9636    1.1860 O   0  0  0  0  0  0  0  0  0  0  0  0
   -0.0184    1.5028    0.0103 C   0  0  0  0  0  0  0  0  0  0  0  0
    0.0021   -0.0041    0.0020 C   0  0  0  0  0  0  0  0  0  0  0  0
   -0.5042   -0.6201    0.9098 O   0  0  0  0  0  0  0  0  0  0  0  0
   -2.2298   12.3202   -0.2054 H   0  0  0  0  0  0  0  0  0  0  0  0
   -2.6438   13.4012    1.1467 H   0  0  0  0  0  0  0  0  0  0  0  0
   -1.6645   11.9441    1.4399 H   0  0  0  0  0  0  0  0  0  0  0  0
   -5.8141   11.5724    0.4665 H   0  0  0  0  0  0  0  0  0  0  0  0
   -5.0670   13.1841    0.5782 H   0  0  0  0  0  0  0  0  0  0  0  0
   -4.6530   12.1031   -0.7739 H   0  0  0  0  0  0  0  0  0  0  0  0
   -3.2942   11.1992    3.1810 H   0  0  0  0  0  0  0  0  0  0  0  0
   -4.2735   12.6563    2.8878 H   0  0  0  0  0  0  0  0  0  0  0  0
   -5.0206   11.0445    2.7761 H   0  0  0  0  0  0  0  0  0  0  0  0
    0.8167    8.3301    2.0992 H   0  0  0  0  0  0  0  0  0  0  0  0
   -0.3955    8.7387   -1.6966 H   0  0  0  0  0  0  0  0  0  0  0  0
   -3.6199    7.0581   -1.0824 H   0  0  0  0  0  0  0  0  0  0  0  0
   -2.3233    7.3753   -2.3929 H   0  0  0  0  0  0  0  0  0  0  0  0
    0.0394    6.2033   -0.1777 H   0  0  0  0  0  0  0  0  0  0  0  0
    0.2406    3.7677   -0.4693 H   0  0  0  0  0  0  0  0  0  0  0  0
   -2.0328    5.6058    3.5016 H   0  0  0  0  0  0  0  0  0  0  0  0
   -1.8798    4.2204    5.0651 H   0  0  0  0  0  0  0  0  0  0  0  0
   -3.4295    4.2047    4.1896 H   0  0  0  0  0  0  0  0  0  0  0  0
   -2.9640    2.8151    5.1998 H   0  0  0  0  0  0  0  0  0  0  0  0
    1.0042    1.8801    0.0026 H   0  0  0  0  0  0  0  0  0  0  0  0
   -0.5455    1.8639   -0.8728 H   0  0  0  0  0  0  0  0  0  0  0  0
    0.5827   -0.6618   -1.0138 O   0  5  0  0  0  0  0  0  0  0  0  0
  1  2  1  0  0  0  0
  1 30  1  0  0  0  0
  1 31  1  0  0  0  0
  1 32  1  0  0  0  0
  2  3  1  0  0  0  0
  2  4  1  0  0  0  0
  2  5  1  0  0  0  0
  3 33  1  0  0  0  0
  3 34  1  0  0  0  0
  3 35  1  0  0  0  0
  4 36  1  0  0  0  0
  4 37  1  0  0  0  0
  4 38  1  0  0  0  0
  5  6  1  0  0  0  0
  6  7  2  0  0  0  0
  6  8  1  0  0  0  0
  8  9  1  0  0  0  0
  8 16  1  0  0  0  0
  8 10  1  0  0  0  0
 10 11  1  0  0  0  0
 10 12  1  0  0  0  0
 10 18  1  0  0  0  0
 12 13  1  0  0  0  0
 12 39  1  0  0  0  0
 13 14  2  0  0  0  0
 13 15  1  0  0  0  0
 15 16  1  0  0  0  0
 15 40  1  0  0  0  0
 16 17  2  0  0  0  0
 17 41  1  0  0  0  0
 17 42  1  0  0  0  0
 18 23  2  0  0  0  0
 18 19  1  0  0  0  0
 19 20  2  0  0  0  0
 19 43  1  0  0  0  0
 20 21  1  0  0  0  0
 20 44  1  0  0  0  0
 21 22  2  0  0  0  0
 21 26  1  0  0  0  0
 22 23  1  0  0  0  0
 22 24  1  0  0  0  0
 23 45  1  0  0  0  0
 24 25  1  0  0  0  0
 25 46  1  0  0  0  0
 25 47  1  0  0  0  0
 25 48  1  0  0  0  0
 26 27  1  0  0  0  0
 27 28  1  0  0  0  0
 27 49  1  0  0  0  0
 27 50  1  0  0  0  0
 28 29  2  0  0  0  0
 28 51  1  0  0  0  0
M  CHG  1  51  -1
M  END
$$$$
ZINC02741299
  -OEChem-08230709463D

 62 64  0     1  0  0  0  0  0999 V2000
   -1.1408   11.6950    0.7193 C   0  0  0  0  0  0  0  0  0  0  0  0
   -0.6495   10.2714    0.9893 C   0  0  0  0  0  0  0  0  0  0  0  0
    0.5988    9.9947    0.1490 C   0  0  0  0  0  0  0  0  0  0  0  0
    1.6967   10.9927    0.5228 C   0  0  0  0  0  0  0  0  0  0  0  0
    0.2580   10.1437   -1.3351 C   0  0  0  0  0  0  0  0  0  0  0  0
    1.0901    8.5711    0.4191 C   0  0  2  0  0  0  0  0  0  0  0  0
    1.3382    8.4644    1.4751 H   0  0  0  0  0  0  0  0  0  0  0  0
    2.3308    8.2832   -0.4314 C   0  0  0  0  0  0  0  0  0  0  0  0
    2.9703    6.9659    0.0105 C   0  0  0  0  0  0  0  0  0  0  0  0
    1.9022    5.8793    0.0156 C   0  0  0  0  0  0  0  0  0  0  0  0
    0.5892    6.1947    0.0301 C   0  0  0  0  0  0  0  0  0  0  0  0
   -0.2512    4.6365    0.0217 S   0  0  0  0  0  0  0  0  0  0  0  0
    1.1207    3.5784    0.0106 C   0  0  0  0  0  0  0  0  0  0  0  0
    2.1969    4.4561    0.0050 C   0  0  0  0  0  0  0  0  0  0  0  0
    3.5768    3.9661   -0.0104 C   0  0  0  0  0  0  0  0  0  0  0  0
    4.1402    3.7684   -1.0702 O   0  0  0  0  0  0  0  0  0  0  0  0
    4.2231    3.7340    1.1505 O   0  0  0  0  0  0  0  0  0  0  0  0
    5.5887    3.2492    1.0593 C   0  0  0  0  0  0  0  0  0  0  0  0
    1.1395    2.1925    0.0030 N   0  0  0  0  0  0  0  0  0  0  0  0
   -0.0184    1.5028    0.0103 C   0  0  0  0  0  0  0  0  0  0  0  0
   -1.0768    2.0948    0.0185 O   0  0  0  0  0  0  0  0  0  0  0  0
    0.0021   -0.0041    0.0020 C   0  0  1  0  0  0  0  0  0  0  0  0
    0.5123   -0.3556   -0.8948 H   0  0  0  0  0  0  0  0  0  0  0  0
    0.7421   -0.5109    1.2415 C   0  0  0  0  0  0  0  0  0  0  0  0
    0.7628   -2.0407    1.2331 C   0  0  0  0  0  0  0  0  0  0  0  0
   -0.6726   -2.5703    1.2440 C   0  0  0  0  0  0  0  0  0  0  0  0
   -1.4126   -2.0635    0.0045 C   0  0  0  0  0  0  0  0  0  0  0  0
   -1.4333   -0.5336    0.0129 C   0  0  2  0  0  0  0  0  0  0  0  0
   -1.9435   -0.1821    0.9097 H   0  0  0  0  0  0  0  0  0  0  0  0
   -2.1622   -0.0344   -1.2080 C   0  0  0  0  0  0  0  0  0  0  0  0
   -1.5921    0.6724   -2.0050 O   0  0  0  0  0  0  0  0  0  0  0  0
   -0.0099    7.5672    0.0447 C   0  0  0  0  0  0  0  0  0  0  0  0
   -1.3837   11.8011   -0.3380 H   0  0  0  0  0  0  0  0  0  0  0  0
   -2.0302   11.8921    1.3179 H   0  0  0  0  0  0  0  0  0  0  0  0
   -0.3587   12.4059    0.9856 H   0  0  0  0  0  0  0  0  0  0  0  0
   -1.4316    9.5604    0.7230 H   0  0  0  0  0  0  0  0  0  0  0  0
   -0.4067   10.1652    2.0466 H   0  0  0  0  0  0  0  0  0  0  0  0
    2.5860   10.7956   -0.0758 H   0  0  0  0  0  0  0  0  0  0  0  0
    1.3466   12.0068    0.3305 H   0  0  0  0  0  0  0  0  0  0  0  0
    1.9395   10.8865    1.5801 H   0  0  0  0  0  0  0  0  0  0  0  0
   -0.5242    9.4328   -1.6014 H   0  0  0  0  0  0  0  0  0  0  0  0
   -0.0921   11.1579   -1.5274 H   0  0  0  0  0  0  0  0  0  0  0  0
    1.1473    9.9466   -1.9337 H   0  0  0  0  0  0  0  0  0  0  0  0
    2.0422    8.2114   -1.4801 H   0  0  0  0  0  0  0  0  0  0  0  0
    3.0501    9.0928   -0.3083 H   0  0  0  0  0  0  0  0  0  0  0  0
    3.3818    7.0785    1.0136 H   0  0  0  0  0  0  0  0  0  0  0  0
    3.7650    6.6939   -0.6842 H   0  0  0  0  0  0  0  0  0  0  0  0
    5.6025    2.3011    0.5217 H   0  0  0  0  0  0  0  0  0  0  0  0
    6.1982    3.9784    0.5255 H   0  0  0  0  0  0  0  0  0  0  0  0
    5.9906    3.1042    2.0620 H   0  0  0  0  0  0  0  0  0  0  0  0
    1.9860    1.7190   -0.0077 H   0  0  0  0  0  0  0  0  0  0  0  0
    1.7647   -0.1336    1.2338 H   0  0  0  0  0  0  0  0  0  0  0  0
    0.2319   -0.1594    2.1383 H   0  0  0  0  0  0  0  0  0  0  0  0
    1.2900   -2.4018    2.1162 H   0  0  0  0  0  0  0  0  0  0  0  0
    1.2730   -2.3923    0.3363 H   0  0  0  0  0  0  0  0  0  0  0  0
   -1.1828   -2.2188    2.1408 H   0  0  0  0  0  0  0  0  0  0  0  0
   -0.6578   -3.6602    1.2380 H   0  0  0  0  0  0  0  0  0  0  0  0
   -2.4352   -2.4408    0.0122 H   0  0  0  0  0  0  0  0  0  0  0  0
   -0.9024   -2.4150   -0.8923 H   0  0  0  0  0  0  0  0  0  0  0  0
   -0.4045    7.8062   -0.9429 H   0  0  0  0  0  0  0  0  0  0  0  0
   -0.8126    7.6097    0.7809 H   0  0  0  0  0  0  0  0  0  0  0  0
   -3.4447   -0.3750   -1.4100 O   0  5  0  0  0  0  0  0  0  0  0  0
  1  2  1  0  0  0  0
  1 33  1  0  0  0  0
  1 34  1  0  0  0  0
  1 35  1  0  0  0  0
  2  3  1  0  0  0  0
  2 36  1  0  0  0  0
  2 37  1  0  0  0  0
  3  4  1  0  0  0  0
  3  5  1  0  0  0  0
  3  6  1  0  0  0  0
  4 38  1  0  0  0  0
  4 39  1  0  0  0  0
  4 40  1  0  0  0  0
  5 41  1  0  0  0  0
  5 42  1  0  0  0  0
  5 43  1  0  0  0  0
  6  7  1  0  0  0  0
  6 32  1  0  0  0  0
  6  8  1  0  0  0  0
  8  9  1  0  0  0  0
  8 44  1  0  0  0  0
  8 45  1  0  0  0  0
  9 10  1  0  0  0  0
  9 46  1  0  0  0  0
  9 47  1  0  0  0  0
 10 14  1  0  0  0  0
 10 11  2  0  0  0  0
 11 12  1  0  0  0  0
 11 32  1  0  0  0  0
 12 13  1  0  0  0  0
 13 14  2  0  0  0  0
 13 19  1  0  0  0  0
 14 15  1  0  0  0  0
 15 16  2  0  0  0  0
 15 17  1  0  0  0  0
 17 18  1  0  0  0  0
 18 48  1  0  0  0  0
 18 49  1  0  0  0  0
 18 50  1  0  0  0  0
 19 20  1  0  0  0  0
 19 51  1  0  0  0  0
 20 21  2  0  0  0  0
 20 22  1  0  0  0  0
 22 23  1  0  0  0  0
 22 28  1  0  0  0  0
 22 24  1  0  0  0  0
 24 25  1  0  0  0  0
 24 52  1  0  0  0  0
 24 53  1  0  0  0  0
 25 26  1  0  0  0  0
 25 54  1  0  0  0  0
 25 55  1  0  0  0  0
 26 27  1  0  0  0  0
 26 56  1  0  0  0  0
 26 57  1  0  0  0  0
 27 28  1  0  0  0  0
 27 58  1  0  0  0  0
 27 59  1  0  0  0  0
 28 29  1  0  0  0  0
 28 30  1  0  0  0  0
 30 31  2  0  0  0  0
 30 62  1  0  0  0  0
 32 60  1  0  0  0  0
 32 61  1  0  0  0  0
M  CHG  1  62  -1
M  END
$$$$
ZINC02747477
  -OEChem-08230709463D

 55 58  0     1  0  0  0  0  0999 V2000
    5.6801    5.5802   -1.0963 C   0  0  0  0  0  0  0  0  0  0  0  0
    4.1764    5.2981   -1.1105 C   0  0  0  0  0  0  0  0  0  0  0  0
    3.5410    5.9799   -2.3238 C   0  0  0  0  0  0  0  0  0  0  0  0
    3.9535    3.8655   -1.1884 O   0  0  0  0  0  0  0  0  0  0  0  0
    3.8604    3.1958   -0.0213 C   0  0  0  0  0  0  0  0  0  0  0  0
    3.9630    3.7939    1.0329 O   0  0  0  0  0  0  0  0  0  0  0  0
    3.6359    1.7488   -0.0233 C   0  0  0  0  0  0  0  0  0  0  0  0
    4.7526    0.8127   -0.0357 C   0  0  0  0  0  0  0  0  0  0  0  0
    4.4028   -0.4907   -0.0461 C   0  0  0  0  0  0  0  0  0  0  0  0
    2.6307   -0.4878   -0.0180 S   0  0  0  0  0  0  0  0  0  0  0  0
    2.3531    1.2217   -0.0138 C   0  0  0  0  0  0  0  0  0  0  0  0
    1.1435    1.8983    0.0013 N   0  0  0  0  0  0  0  0  0  0  0  0
   -0.0144    1.2086    0.0087 C   0  0  0  0  0  0  0  0  0  0  0  0
    0.0021   -0.0041    0.0020 O   0  0  0  0  0  0  0  0  0  0  0  0
   -1.3296    1.9443    0.0189 C   0  0  2  0  0  0  0  0  0  0  0  0
   -1.3891    2.6086    0.8811 H   0  0  0  0  0  0  0  0  0  0  0  0
   -2.5226    0.9362    0.0191 C   0  0  1  0  0  0  0  0  0  0  0  0
   -2.7497    0.4570    0.9715 H   0  0  0  0  0  0  0  0  0  0  0  0
   -3.6463    1.8262   -0.6276 C   0  0  0  0  0  0  0  0  0  0  0  0
   -2.8041    2.1073   -1.9254 C   0  0  1  0  0  0  0  0  0  0  0  0
   -3.2971    2.6749   -2.7147 H   0  0  0  0  0  0  0  0  0  0  0  0
   -1.5201    2.7370   -1.2974 C   0  0  1  0  0  0  0  0  0  0  0  0
   -0.6631    2.5973   -1.9563 H   0  0  0  0  0  0  0  0  0  0  0  0
   -1.7347    4.2004   -1.0081 C   0  0  0  0  0  0  0  0  0  0  0  0
   -1.7392    4.5963    0.1334 O   0  0  0  0  0  0  0  0  0  0  0  0
   -2.3829    0.6756   -2.2785 C   0  0  0  0  0  0  0  0  0  0  0  0
   -2.2208    0.0008   -1.1581 C   0  0  0  0  0  0  0  0  0  0  0  0
    5.3084   -1.6822   -0.0749 C   0  0  0  0  0  0  0  0  0  0  0  0
    6.3900   -1.5208    1.0016 C   0  0  0  0  0  0  0  0  0  0  0  0
    7.5775   -0.7859    0.3877 C   0  0  0  0  0  0  0  0  0  0  0  0
    7.0924    0.2111   -0.6629 C   0  0  0  0  0  0  0  0  0  0  0  0
    6.2052    1.2725   -0.0219 C   0  0  0  0  0  0  0  0  0  0  0  0
    5.8475    6.6557   -1.0378 H   0  0  0  0  0  0  0  0  0  0  0  0
    6.1328    5.0945   -0.2319 H   0  0  0  0  0  0  0  0  0  0  0  0
    6.1313    5.1915   -2.0092 H   0  0  0  0  0  0  0  0  0  0  0  0
    3.7252    5.6869   -0.1976 H   0  0  0  0  0  0  0  0  0  0  0  0
    2.4697    5.7790   -2.3339 H   0  0  0  0  0  0  0  0  0  0  0  0
    3.7084    7.0554   -2.2653 H   0  0  0  0  0  0  0  0  0  0  0  0
    3.9922    5.5912   -3.2367 H   0  0  0  0  0  0  0  0  0  0  0  0
    1.1304    2.8682    0.0067 H   0  0  0  0  0  0  0  0  0  0  0  0
   -4.5570    1.2640   -0.8344 H   0  0  0  0  0  0  0  0  0  0  0  0
   -3.8438    2.7316   -0.0537 H   0  0  0  0  0  0  0  0  0  0  0  0
   -2.2430    0.2863   -3.2762 H   0  0  0  0  0  0  0  0  0  0  0  0
   -1.9254   -1.0352   -1.0819 H   0  0  0  0  0  0  0  0  0  0  0  0
    5.7789   -1.7582   -1.0552 H   0  0  0  0  0  0  0  0  0  0  0  0
    4.7302   -2.5848    0.1224 H   0  0  0  0  0  0  0  0  0  0  0  0
    6.7081   -2.5030    1.3513 H   0  0  0  0  0  0  0  0  0  0  0  0
    5.9952   -0.9444    1.8382 H   0  0  0  0  0  0  0  0  0  0  0  0
    8.2464   -1.5078   -0.0809 H   0  0  0  0  0  0  0  0  0  0  0  0
    8.1163   -0.2522    1.1707 H   0  0  0  0  0  0  0  0  0  0  0  0
    6.5247   -0.3191   -1.4276 H   0  0  0  0  0  0  0  0  0  0  0  0
    7.9549    0.6927   -1.1236 H   0  0  0  0  0  0  0  0  0  0  0  0
    6.2952    2.2046   -0.5798 H   0  0  0  0  0  0  0  0  0  0  0  0
    6.5237    1.4348    1.0079 H   0  0  0  0  0  0  0  0  0  0  0  0
   -1.9209    5.0640   -2.0187 O   0  5  0  0  0  0  0  0  0  0  0  0
  1  2  1  0  0  0  0
  1 33  1  0  0  0  0
  1 34  1  0  0  0  0
  1 35  1  0  0  0  0
  2  3  1  0  0  0  0
  2  4  1  0  0  0  0
  2 36  1  0  0  0  0
  3 37  1  0  0  0  0
  3 38  1  0  0  0  0
  3 39  1  0  0  0  0
  4  5  1  0  0  0  0
  5  6  2  0  0  0  0
  5  7  1  0  0  0  0
  7 11  2  0  0  0  0
  7  8  1  0  0  0  0
  8 32  1  0  0  0  0
  8  9  2  0  0  0  0
  9 10  1  0  0  0  0
  9 28  1  0  0  0  0
 10 11  1  0  0  0  0
 11 12  1  0  0  0  0
 12 13  1  0  0  0  0
 12 40  1  0  0  0  0
 13 14  2  0  0  0  0
 13 15  1  0  0  0  0
 15 16  1  0  0  0  0
 15 22  1  0  0  0  0
 15 17  1  0  0  0  0
 17 18  1  0  0  0  0
 17 27  1  0  0  0  0
 17 19  1  0  0  0  0
 19 20  1  0  0  0  0
 19 41  1  0  0  0  0
 19 42  1  0  0  0  0
 20 21  1  0  0  0  0
 20 22  1  0  0  0  0
 20 26  1  0  0  0  0
 22 23  1  0  0  0  0
 22 24  1  0  0  0  0
 24 25  2  0  0  0  0
 24 55  1  0  0  0  0
 26 27  2  0  0  0  0
 26 43  1  0  0  0  0
 27 44  1  0  0  0  0
 28 29  1  0  0  0  0
 28 45  1  0  0  0  0
 28 46  1  0  0  0  0
 29 30  1  0  0  0  0
 29 47  1  0  0  0  0
 29 48  1  0  0  0  0
 30 31  1  0  0  0  0
 30 49  1  0  0  0  0
 30 50  1  0  0  0  0
 31 32  1  0  0  0  0
 31 51  1  0  0  0  0
 31 52  1  0  0  0  0
 32 53  1  0  0  0  0
 32 54  1  0  0  0  0
M  CHG  1  55  -1
M  END
$$$$
ZINC02753605
  -OEChem-08230709463D

 57 60  0     1  0  0  0  0  0999 V2000
    2.8407    4.3085   -0.6896 C   0  0  0  0  0  0  0  0  0  0  0  0
    2.9544    2.8166   -0.3699 C   0  0  0  0  0  0  0  0  0  0  0  0
    1.5555    2.1999   -0.3094 C   0  0  0  0  0  0  0  0  0  0  0  0
    1.6693    0.7080    0.0103 C   0  0  0  0  0  0  0  0  0  0  0  0
    0.3417    0.1227    0.0677 O   0  0  0  0  0  0  0  0  0  0  0  0
    0.2651   -1.1958    0.3415 C   0  0  0  0  0  0  0  0  0  0  0  0
    1.2810   -1.8384    0.5273 O   0  0  0  0  0  0  0  0  0  0  0  0
   -1.0411   -1.8536    0.4152 C   0  0  0  0  0  0  0  0  0  0  0  0
   -1.6560   -2.4431   -0.7624 C   0  0  0  0  0  0  0  0  0  0  0  0
   -2.8587   -3.0212   -0.5550 C   0  0  0  0  0  0  0  0  0  0  0  0
   -3.1850   -2.7824    1.1686 S   0  0  0  0  0  0  0  0  0  0  0  0
   -1.7416   -1.9324    1.6117 C   0  0  0  0  0  0  0  0  0  0  0  0
   -1.3750   -1.4490    2.8579 N   0  0  0  0  0  0  0  0  0  0  0  0
   -2.1931   -1.6215    3.9150 C   0  0  0  0  0  0  0  0  0  0  0  0
   -3.2500   -2.1996    3.7758 O   0  0  0  0  0  0  0  0  0  0  0  0
   -1.7944   -1.0959    5.2700 C   0  0  2  0  0  0  0  0  0  0  0  0
   -0.8544   -1.5458    5.5897 H   0  0  0  0  0  0  0  0  0  0  0  0
   -2.9162   -1.3803    6.3149 C   0  0  1  0  0  0  0  0  0  0  0  0
   -3.3807   -2.3648    6.2593 H   0  0  0  0  0  0  0  0  0  0  0  0
   -2.2765   -1.0049    7.6864 C   0  0  0  0  0  0  0  0  0  0  0  0
   -2.1554    0.5358    7.6525 C   0  0  0  0  0  0  0  0  0  0  0  0
   -2.7334    0.9462    6.2637 C   0  0  2  0  0  0  0  0  0  0  0  0
   -3.0514    1.9844    6.1679 H   0  0  0  0  0  0  0  0  0  0  0  0
   -3.8507   -0.1410    6.0818 C   0  0  0  0  0  0  0  0  0  0  0  0
   -1.6703    0.4445    5.2353 C   0  0  1  0  0  0  0  0  0  0  0  0
   -1.8976    0.8217    4.2382 H   0  0  0  0  0  0  0  0  0  0  0  0
   -0.2872    0.8697    5.6565 C   0  0  0  0  0  0  0  0  0  0  0  0
    0.3975    0.1271    6.3194 O   0  0  0  0  0  0  0  0  0  0  0  0
   -3.7196   -3.7050   -1.5720 C   0  0  0  0  0  0  0  0  0  0  0  0
   -3.2035   -3.3349   -2.9702 C   0  0  0  0  0  0  0  0  0  0  0  0
   -1.6836   -3.5202   -3.0000 C   0  0  0  0  0  0  0  0  0  0  0  0
   -1.0119   -2.4454   -2.1434 C   0  0  0  0  0  0  0  0  0  0  0  0
    3.8373    4.7479   -0.7327 H   0  0  0  0  0  0  0  0  0  0  0  0
    2.3451    4.4371   -1.6519 H   0  0  0  0  0  0  0  0  0  0  0  0
    2.2587    4.8034    0.0878 H   0  0  0  0  0  0  0  0  0  0  0  0
    3.4501    2.6881    0.5924 H   0  0  0  0  0  0  0  0  0  0  0  0
    3.5364    2.3217   -1.1473 H   0  0  0  0  0  0  0  0  0  0  0  0
    1.0599    2.3285   -1.2717 H   0  0  0  0  0  0  0  0  0  0  0  0
    0.9736    2.6948    0.4680 H   0  0  0  0  0  0  0  0  0  0  0  0
    2.1649    0.5795    0.9726 H   0  0  0  0  0  0  0  0  0  0  0  0
    2.2513    0.2131   -0.7671 H   0  0  0  0  0  0  0  0  0  0  0  0
   -0.5296   -0.9866    2.9692 H   0  0  0  0  0  0  0  0  0  0  0  0
   -2.9238   -1.3172    8.5059 H   0  0  0  0  0  0  0  0  0  0  0  0
   -1.2923   -1.4631    7.7848 H   0  0  0  0  0  0  0  0  0  0  0  0
   -2.7432    0.9809    8.4553 H   0  0  0  0  0  0  0  0  0  0  0  0
   -1.1108    0.8368    7.7334 H   0  0  0  0  0  0  0  0  0  0  0  0
   -4.2719   -0.1300    5.0766 H   0  0  0  0  0  0  0  0  0  0  0  0
   -4.6248   -0.0633    6.8453 H   0  0  0  0  0  0  0  0  0  0  0  0
   -3.6637   -4.7848   -1.4339 H   0  0  0  0  0  0  0  0  0  0  0  0
   -4.7520   -3.3732   -1.4620 H   0  0  0  0  0  0  0  0  0  0  0  0
   -3.6654   -3.9844   -3.7138 H   0  0  0  0  0  0  0  0  0  0  0  0
   -3.4492   -2.2954   -3.1869 H   0  0  0  0  0  0  0  0  0  0  0  0
   -1.4312   -4.5055   -2.6083 H   0  0  0  0  0  0  0  0  0  0  0  0
   -1.3289   -3.4384   -4.0274 H   0  0  0  0  0  0  0  0  0  0  0  0
    0.0523   -2.6627   -2.0527 H   0  0  0  0  0  0  0  0  0  0  0  0
   -1.1471   -1.4694   -2.6095 H   0  0  0  0  0  0  0  0  0  0  0  0
    0.1840    2.0735    5.2951 O   0  5  0  0  0  0  0  0  0  0  0  0
  1  2  1  0  0  0  0
  1 33  1  0  0  0  0
  1 34  1  0  0  0  0
  1 35  1  0  0  0  0
  2  3  1  0  0  0  0
  2 36  1  0  0  0  0
  2 37  1  0  0  0  0
  3  4  1  0  0  0  0
  3 38  1  0  0  0  0
  3 39  1  0  0  0  0
  4  5  1  0  0  0  0
  4 40  1  0  0  0  0
  4 41  1  0  0  0  0
  5  6  1  0  0  0  0
  6  7  2  0  0  0  0
  6  8  1  0  0  0  0
  8 12  2  0  0  0  0
  8  9  1  0  0  0  0
  9 32  1  0  0  0  0
  9 10  2  0  0  0  0
 10 11  1  0  0  0  0
 10 29  1  0  0  0  0
 11 12  1  0  0  0  0
 12 13  1  0  0  0  0
 13 14  1  0  0  0  0
 13 42  1  0  0  0  0
 14 15  2  0  0  0  0
 14 16  1  0  0  0  0
 16 17  1  0  0  0  0
 16 25  1  0  0  0  0
 16 18  1  0  0  0  0
 18 19  1  0  0  0  0
 18 24  1  0  0  0  0
 18 20  1  0  0  0  0
 20 21  1  0  0  0  0
 20 43  1  0  0  0  0
 20 44  1  0  0  0  0
 21 22  1  0  0  0  0
 21 45  1  0  0  0  0
 21 46  1  0  0  0  0
 22 23  1  0  0  0  0
 22 24  1  0  0  0  0
 22 25  1  0  0  0  0
 24 47  1  0  0  0  0
 24 48  1  0  0  0  0
 25 26  1  0  0  0  0
 25 27  1  0  0  0  0
 27 28  2  0  0  0  0
 27 57  1  0  0  0  0
 29 30  1  0  0  0  0
 29 49  1  0  0  0  0
 29 50  1  0  0  0  0
 30 31  1  0  0  0  0
 30 51  1  0  0  0  0
 30 52  1  0  0  0  0
 31 32  1  0  0  0  0
 31 53  1  0  0  0  0
 31 54  1  0  0  0  0
 32 55  1  0  0  0  0
 32 56  1  0  0  0  0
M  CHG  1  57  -1
M  END
$$$$
ZINC02753610
  -OEChem-08230709463D

 60 63  0     1  0  0  0  0  0999 V2000
   -3.2485   -2.7816   -0.7270 C   0  0  0  0  0  0  0  0  0  0  0  0
   -3.0911   -1.6286   -1.7204 C   0  0  0  0  0  0  0  0  0  0  0  0
   -1.9548   -0.7122   -1.2622 C   0  0  2  0  0  0  0  0  0  0  0  0
   -2.1439   -0.3777   -0.2422 H   0  0  0  0  0  0  0  0  0  0  0  0
   -1.8650    0.4995   -2.1945 C   0  0  0  0  0  0  0  0  0  0  0  0
   -0.9044    1.5363   -1.6136 C   0  0  0  0  0  0  0  0  0  0  0  0
    0.4158    0.8524   -1.2805 C   0  0  0  0  0  0  0  0  0  0  0  0
    0.4927   -0.4905   -1.1607 C   0  0  0  0  0  0  0  0  0  0  0  0
    2.1917   -0.8153   -0.7835 S   0  0  0  0  0  0  0  0  0  0  0  0
    2.7941    0.8092   -0.7839 C   0  0  0  0  0  0  0  0  0  0  0  0
    1.6661    1.5647   -1.0761 C   0  0  0  0  0  0  0  0  0  0  0  0
    1.7339    3.0242   -1.1751 C   0  0  0  0  0  0  0  0  0  0  0  0
    1.5486    3.7100   -0.1877 O   0  0  0  0  0  0  0  0  0  0  0  0
    2.0019    3.6080   -2.3612 O   0  0  0  0  0  0  0  0  0  0  0  0
    2.0537    5.0589   -2.3850 C   0  0  0  0  0  0  0  0  0  0  0  0
    3.0332    5.5165   -3.4676 C   0  0  0  0  0  0  0  0  0  0  0  0
    0.6609    5.6139   -2.6898 C   0  0  0  0  0  0  0  0  0  0  0  0
    4.0877    1.2482   -0.5491 N   0  0  0  0  0  0  0  0  0  0  0  0
    5.0627    0.3580   -0.2783 C   0  0  0  0  0  0  0  0  0  0  0  0
    4.8082   -0.8272   -0.2400 O   0  0  0  0  0  0  0  0  0  0  0  0
    6.4691    0.8353   -0.0230 C   0  0  2  0  0  0  0  0  0  0  0  0
    6.8464    1.3827   -0.8868 H   0  0  0  0  0  0  0  0  0  0  0  0
    7.4012   -0.3708    0.3056 C   0  0  1  0  0  0  0  0  0  0  0  0
    7.2523   -1.2663   -0.2976 H   0  0  0  0  0  0  0  0  0  0  0  0
    8.8394    0.2313    0.2883 C   0  0  0  0  0  0  0  0  0  0  0  0
    8.9028    1.1282    1.5458 C   0  0  0  0  0  0  0  0  0  0  0  0
    7.4969    0.9835    2.2044 C   0  0  2  0  0  0  0  0  0  0  0  0
    7.4343    1.2544    3.2583 H   0  0  0  0  0  0  0  0  0  0  0  0
    7.1466   -0.5226    1.8469 C   0  0  0  0  0  0  0  0  0  0  0  0
    6.5155    1.7242    1.2408 C   0  0  1  0  0  0  0  0  0  0  0  0
    5.5211    1.8160    1.6774 H   0  0  0  0  0  0  0  0  0  0  0  0
    7.0714    3.0844    0.9062 C   0  0  0  0  0  0  0  0  0  0  0  0
    7.7515    3.2329   -0.0814 O   0  0  0  0  0  0  0  0  0  0  0  0
   -0.6240   -1.4765   -1.3150 C   0  0  0  0  0  0  0  0  0  0  0  0
   -4.0580   -3.4344   -1.0534 H   0  0  0  0  0  0  0  0  0  0  0  0
   -2.3197   -3.3501   -0.6801 H   0  0  0  0  0  0  0  0  0  0  0  0
   -3.4799   -2.3816    0.2602 H   0  0  0  0  0  0  0  0  0  0  0  0
   -4.0200   -1.0601   -1.7673 H   0  0  0  0  0  0  0  0  0  0  0  0
   -2.8598   -2.0286   -2.7076 H   0  0  0  0  0  0  0  0  0  0  0  0
   -1.5000    0.1793   -3.1704 H   0  0  0  0  0  0  0  0  0  0  0  0
   -2.8536    0.9448   -2.3059 H   0  0  0  0  0  0  0  0  0  0  0  0
   -1.3369    1.9576   -0.7061 H   0  0  0  0  0  0  0  0  0  0  0  0
   -0.7317    2.3296   -2.3409 H   0  0  0  0  0  0  0  0  0  0  0  0
    2.3869    5.4265   -1.4145 H   0  0  0  0  0  0  0  0  0  0  0  0
    2.6999    5.1489   -4.4380 H   0  0  0  0  0  0  0  0  0  0  0  0
    3.0720    6.6057   -3.4854 H   0  0  0  0  0  0  0  0  0  0  0  0
    4.0255    5.1211   -3.2504 H   0  0  0  0  0  0  0  0  0  0  0  0
    0.6997    6.7031   -2.7077 H   0  0  0  0  0  0  0  0  0  0  0  0
    0.3276    5.2462   -3.6603 H   0  0  0  0  0  0  0  0  0  0  0  0
   -0.0370    5.2879   -1.9185 H   0  0  0  0  0  0  0  0  0  0  0  0
    4.2913    2.1961   -0.5797 H   0  0  0  0  0  0  0  0  0  0  0  0
    9.5843   -0.5621    0.3496 H   0  0  0  0  0  0  0  0  0  0  0  0
    8.9917    0.8257   -0.6126 H   0  0  0  0  0  0  0  0  0  0  0  0
    9.6788    0.7757    2.2252 H   0  0  0  0  0  0  0  0  0  0  0  0
    9.0876    2.1648    1.2642 H   0  0  0  0  0  0  0  0  0  0  0  0
    6.1109   -0.7814    2.0666 H   0  0  0  0  0  0  0  0  0  0  0  0
    7.8445   -1.2203    2.3097 H   0  0  0  0  0  0  0  0  0  0  0  0
   -0.5322   -1.9883   -2.2730 H   0  0  0  0  0  0  0  0  0  0  0  0
   -0.5861   -2.2042   -0.5043 H   0  0  0  0  0  0  0  0  0  0  0  0
    6.8108    4.1310    1.7053 O   0  5  0  0  0  0  0  0  0  0  0  0
  1  2  1  0  0  0  0
  1 35  1  0  0  0  0
  1 36  1  0  0  0  0
  1 37  1  0  0  0  0
  2  3  1  0  0  0  0
  2 38  1  0  0  0  0
  2 39  1  0  0  0  0
  3  4  1  0  0  0  0
  3 34  1  0  0  0  0
  3  5  1  0  0  0  0
  5  6  1  0  0  0  0
  5 40  1  0  0  0  0
  5 41  1  0  0  0  0
  6  7  1  0  0  0  0
  6 42  1  0  0  0  0
  6 43  1  0  0  0  0
  7 11  1  0  0  0  0
  7  8  2  0  0  0  0
  8  9  1  0  0  0  0
  8 34  1  0  0  0  0
  9 10  1  0  0  0  0
 10 11  2  0  0  0  0
 10 18  1  0  0  0  0
 11 12  1  0  0  0  0
 12 13  2  0  0  0  0
 12 14  1  0  0  0  0
 14 15  1  0  0  0  0
 15 16  1  0  0  0  0
 15 17  1  0  0  0  0
 15 44  1  0  0  0  0
 16 45  1  0  0  0  0
 16 46  1  0  0  0  0
 16 47  1  0  0  0  0
 17 48  1  0  0  0  0
 17 49  1  0  0  0  0
 17 50  1  0  0  0  0
 18 19  1  0  0  0  0
 18 51  1  0  0  0  0
 19 20  2  0  0  0  0
 19 21  1  0  0  0  0
 21 22  1  0  0  0  0
 21 30  1  0  0  0  0
 21 23  1  0  0  0  0
 23 24  1  0  0  0  0
 23 29  1  0  0  0  0
 23 25  1  0  0  0  0
 25 26  1  0  0  0  0
 25 52  1  0  0  0  0
 25 53  1  0  0  0  0
 26 27  1  0  0  0  0
 26 54  1  0  0  0  0
 26 55  1  0  0  0  0
 27 28  1  0  0  0  0
 27 29  1  0  0  0  0
 27 30  1  0  0  0  0
 29 56  1  0  0  0  0
 29 57  1  0  0  0  0
 30 31  1  0  0  0  0
 30 32  1  0  0  0  0
 32 33  2  0  0  0  0
 32 60  1  0  0  0  0
 34 58  1  0  0  0  0
 34 59  1  0  0  0  0
M  CHG  1  60  -1
M  END
$$$$
ZINC02754188
  -OEChem-08230709463D

 49 50  0     0  0  0  0  0  0999 V2000
  -10.2842    2.2687    0.0653 C   0  0  0  0  0  0  0  0  0  0  0  0
   -8.8359    1.8525    0.0553 C   0  0  0  0  0  0  0  0  0  0  0  0
   -8.3915    0.9263   -0.8711 C   0  0  0  0  0  0  0  0  0  0  0  0
   -7.0665    0.5410   -0.8847 C   0  0  0  0  0  0  0  0  0  0  0  0
   -6.1751    1.0872    0.0377 C   0  0  0  0  0  0  0  0  0  0  0  0
   -6.6299    2.0160    0.9728 C   0  0  0  0  0  0  0  0  0  0  0  0
   -7.9560    2.3979    0.9730 C   0  0  0  0  0  0  0  0  0  0  0  0
   -4.7506    0.6775    0.0283 C   0  0  0  0  0  0  0  0  0  0  0  0
   -4.3857   -0.6300    0.0194 C   0  0  0  0  0  0  0  0  0  0  0  0
   -2.6067   -0.5587    0.0038 S   0  0  0  0  0  0  0  0  0  0  0  0
   -2.3811    1.1574    0.0196 C   0  0  0  0  0  0  0  0  0  0  0  0
   -3.6778    1.6541    0.0285 C   0  0  0  0  0  0  0  0  0  0  0  0
   -3.9488    3.0916    0.0380 C   0  0  0  0  0  0  0  0  0  0  0  0
   -4.0668    3.6953   -1.0115 O   0  0  0  0  0  0  0  0  0  0  0  0
   -4.0679    3.7478    1.2107 O   0  0  0  0  0  0  0  0  0  0  0  0
   -4.3369    5.1731    1.1442 C   0  0  0  0  0  0  0  0  0  0  0  0
   -5.1460    5.5972    2.3715 C   0  0  0  0  0  0  0  0  0  0  0  0
   -3.0139    5.9410    1.1152 C   0  0  0  0  0  0  0  0  0  0  0  0
   -1.1906    1.8665    0.0178 N   0  0  0  0  0  0  0  0  0  0  0  0
   -0.0144    1.2086    0.0087 C   0  0  0  0  0  0  0  0  0  0  0  0
    0.0021   -0.0041    0.0020 O   0  0  0  0  0  0  0  0  0  0  0  0
    1.2803    1.9798    0.0005 C   0  0  0  0  0  0  0  0  0  0  0  0
    2.4566    1.0015   -0.0160 C   0  0  0  0  0  0  0  0  0  0  0  0
    3.7710    1.7844   -0.0244 C   0  0  0  0  0  0  0  0  0  0  0  0
    4.9296    0.8208   -0.0406 C   0  0  0  0  0  0  0  0  0  0  0  0
    4.7250   -0.3700   -0.0450 O   0  0  0  0  0  0  0  0  0  0  0  0
  -10.8474    1.6088    0.7251 H   0  0  0  0  0  0  0  0  0  0  0  0
  -10.3648    3.2952    0.4229 H   0  0  0  0  0  0  0  0  0  0  0  0
  -10.6880    2.2032   -0.9451 H   0  0  0  0  0  0  0  0  0  0  0  0
   -9.0830    0.5036   -1.5849 H   0  0  0  0  0  0  0  0  0  0  0  0
   -6.7208   -0.1825   -1.6082 H   0  0  0  0  0  0  0  0  0  0  0  0
   -5.9450    2.4388    1.6928 H   0  0  0  0  0  0  0  0  0  0  0  0
   -8.3085    3.1209    1.6938 H   0  0  0  0  0  0  0  0  0  0  0  0
   -5.0214   -1.5030    0.0177 H   0  0  0  0  0  0  0  0  0  0  0  0
   -4.9050    5.3938    0.2405 H   0  0  0  0  0  0  0  0  0  0  0  0
   -4.5779    5.3765    3.2752 H   0  0  0  0  0  0  0  0  0  0  0  0
   -5.3480    6.6672    2.3216 H   0  0  0  0  0  0  0  0  0  0  0  0
   -6.0886    5.0501    2.3922 H   0  0  0  0  0  0  0  0  0  0  0  0
   -2.4375    5.6388    0.2408 H   0  0  0  0  0  0  0  0  0  0  0  0
   -3.2159    7.0110    1.0652 H   0  0  0  0  0  0  0  0  0  0  0  0
   -2.4458    5.7203    2.0189 H   0  0  0  0  0  0  0  0  0  0  0  0
   -1.2037    2.8364    0.0232 H   0  0  0  0  0  0  0  0  0  0  0  0
    1.3211    2.6119   -0.8866 H   0  0  0  0  0  0  0  0  0  0  0  0
    1.3381    2.6024    0.8933 H   0  0  0  0  0  0  0  0  0  0  0  0
    2.4158    0.3693    0.8710 H   0  0  0  0  0  0  0  0  0  0  0  0
    2.3988    0.3789   -0.9088 H   0  0  0  0  0  0  0  0  0  0  0  0
    3.8118    2.4166   -0.9114 H   0  0  0  0  0  0  0  0  0  0  0  0
    3.8288    2.4070    0.8685 H   0  0  0  0  0  0  0  0  0  0  0  0
    6.1889    1.2854   -0.0501 O   0  5  0  0  0  0  0  0  0  0  0  0
  1  2  1  0  0  0  0
  1 27  1  0  0  0  0
  1 28  1  0  0  0  0
  1 29  1  0  0  0  0
  2  7  2  0  0  0  0
  2  3  1  0  0  0  0
  3  4  2  0  0  0  0
  3 30  1  0  0  0  0
  4  5  1  0  0  0  0
  4 31  1  0  0  0  0
  5  6  2  0  0  0  0
  5  8  1  0  0  0  0
  6  7  1  0  0  0  0
  6 32  1  0  0  0  0
  7 33  1  0  0  0  0
  8 12  1  0  0  0  0
  8  9  2  0  0  0  0
  9 10  1  0  0  0  0
  9 34  1  0  0  0  0
 10 11  1  0  0  0  0
 11 12  2  0  0  0  0
 11 19  1  0  0  0  0
 12 13  1  0  0  0  0
 13 14  2  0  0  0  0
 13 15  1  0  0  0  0
 15 16  1  0  0  0  0
 16 17  1  0  0  0  0
 16 18  1  0  0  0  0
 16 35  1  0  0  0  0
 17 36  1  0  0  0  0
 17 37  1  0  0  0  0
 17 38  1  0  0  0  0
 18 39  1  0  0  0  0
 18 40  1  0  0  0  0
 18 41  1  0  0  0  0
 19 20  1  0  0  0  0
 19 42  1  0  0  0  0
 20 21  2  0  0  0  0
 20 22  1  0  0  0  0
 22 23  1  0  0  0  0
 22 43  1  0  0  0  0
 22 44  1  0  0  0  0
 23 24  1  0  0  0  0
 23 45  1  0  0  0  0
 23 46  1  0  0  0  0
 24 25  1  0  0  0  0
 24 47  1  0  0  0  0
 24 48  1  0  0  0  0
 25 26  2  0  0  0  0
 25 49  1  0  0  0  0
M  CHG  1  49  -1
M  END
$$$$
ZINC02755129
  -OEChem-08230709463D

 55 57  0     1  0  0  0  0  0999 V2000
    4.9384   15.3696    3.6498 C   0  0  0  0  0  0  0  0  0  0  0  0
    5.5567   14.6352    2.4585 C   0  0  0  0  0  0  0  0  0  0  0  0
    5.0836   13.1802    2.4549 C   0  0  0  0  0  0  0  0  0  0  0  0
    5.7019   12.4458    1.2636 C   0  0  0  0  0  0  0  0  0  0  0  0
    5.2360   11.0126    1.2601 C   0  0  0  0  0  0  0  0  0  0  0  0
    4.0822   10.6649    0.5807 C   0  0  0  0  0  0  0  0  0  0  0  0
    3.6503    9.3542    0.5748 C   0  0  0  0  0  0  0  0  0  0  0  0
    4.3792    8.3799    1.2548 C   0  0  0  0  0  0  0  0  0  0  0  0
    5.5381    8.7371    1.9420 C   0  0  0  0  0  0  0  0  0  0  0  0
    5.9634   10.0500    1.9366 C   0  0  0  0  0  0  0  0  0  0  0  0
    3.9201    6.9696    1.2521 C   0  0  0  0  0  0  0  0  0  0  0  0
    4.8288    5.9483    1.2387 C   0  0  0  0  0  0  0  0  0  0  0  0
    3.7362    4.5328    1.2480 S   0  0  0  0  0  0  0  0  0  0  0  0
    2.1961    5.4399    1.2596 C   0  0  0  0  0  0  0  0  0  0  0  0
    2.6259    6.6879    1.2622 N   0  0  0  0  0  0  0  0  0  0  0  0
    0.8925    4.9590    1.2695 N   0  0  0  0  0  0  0  0  0  0  0  0
    0.6642    3.6307    1.2645 C   0  0  0  0  0  0  0  0  0  0  0  0
    1.5966    2.8552    1.2515 O   0  0  0  0  0  0  0  0  0  0  0  0
   -0.7496    3.1091    1.2752 C   0  0  1  0  0  0  0  0  0  0  0  0
   -1.2598    3.4606    2.1720 H   0  0  0  0  0  0  0  0  0  0  0  0
   -1.4896    3.6159    0.0357 C   0  0  0  0  0  0  0  0  0  0  0  0
   -0.7734    3.1225   -1.2231 C   0  0  0  0  0  0  0  0  0  0  0  0
   -0.7527    1.5927   -1.2315 C   0  0  0  0  0  0  0  0  0  0  0  0
   -0.0127    1.0858    0.0080 C   0  0  0  0  0  0  0  0  0  0  0  0
   -0.7288    1.5792    1.2668 C   0  0  1  0  0  0  0  0  0  0  0  0
   -1.7514    1.2020    1.2746 H   0  0  0  0  0  0  0  0  0  0  0  0
    0.0000    1.0800    2.4877 C   0  0  0  0  0  0  0  0  0  0  0  0
    0.4561    1.8671    3.2830 O   0  0  0  0  0  0  0  0  0  0  0  0
    6.3348    6.0008    1.2259 C   0  0  0  0  0  0  0  0  0  0  0  0
    3.8517   15.3410    3.5700 H   0  0  0  0  0  0  0  0  0  0  0  0
    5.2475   14.8847    4.5758 H   0  0  0  0  0  0  0  0  0  0  0  0
    5.2754   16.4062    3.6524 H   0  0  0  0  0  0  0  0  0  0  0  0
    6.6434   14.6637    2.5383 H   0  0  0  0  0  0  0  0  0  0  0  0
    5.2475   15.1200    1.5325 H   0  0  0  0  0  0  0  0  0  0  0  0
    3.9969   13.1516    2.3751 H   0  0  0  0  0  0  0  0  0  0  0  0
    5.3928   12.6953    3.3809 H   0  0  0  0  0  0  0  0  0  0  0  0
    6.7886   12.4743    1.3434 H   0  0  0  0  0  0  0  0  0  0  0  0
    5.3927   12.9306    0.3376 H   0  0  0  0  0  0  0  0  0  0  0  0
    3.5183   11.4206    0.0542 H   0  0  0  0  0  0  0  0  0  0  0  0
    2.7490    9.0839    0.0446 H   0  0  0  0  0  0  0  0  0  0  0  0
    6.1043    7.9871    2.4743 H   0  0  0  0  0  0  0  0  0  0  0  0
    6.8632   10.3272    2.4657 H   0  0  0  0  0  0  0  0  0  0  0  0
    0.1468    5.5792    1.2799 H   0  0  0  0  0  0  0  0  0  0  0  0
   -1.5044    4.7058    0.0417 H   0  0  0  0  0  0  0  0  0  0  0  0
   -2.5122    3.2386    0.0434 H   0  0  0  0  0  0  0  0  0  0  0  0
    0.2491    3.4998   -1.2308 H   0  0  0  0  0  0  0  0  0  0  0  0
   -1.3006    3.4836   -2.1062 H   0  0  0  0  0  0  0  0  0  0  0  0
   -0.2425    1.2411   -2.1283 H   0  0  0  0  0  0  0  0  0  0  0  0
   -1.7753    1.2154   -1.2238 H   0  0  0  0  0  0  0  0  0  0  0  0
    0.0021   -0.0041    0.0020 H   0  0  0  0  0  0  0  0  0  0  0  0
    1.0099    1.4631    0.0003 H   0  0  0  0  0  0  0  0  0  0  0  0
    6.7068    6.0079    2.2504 H   0  0  0  0  0  0  0  0  0  0  0  0
    6.7244    5.1268    0.7039 H   0  0  0  0  0  0  0  0  0  0  0  0
    6.6625    6.9056    0.7141 H   0  0  0  0  0  0  0  0  0  0  0  0
    0.1426   -0.2390    2.6917 O   0  5  0  0  0  0  0  0  0  0  0  0
  1  2  1  0  0  0  0
  1 30  1  0  0  0  0
  1 31  1  0  0  0  0
  1 32  1  0  0  0  0
  2  3  1  0  0  0  0
  2 33  1  0  0  0  0
  2 34  1  0  0  0  0
  3  4  1  0  0  0  0
  3 35  1  0  0  0  0
  3 36  1  0  0  0  0
  4  5  1  0  0  0  0
  4 37  1  0  0  0  0
  4 38  1  0  0  0  0
  5 10  2  0  0  0  0
  5  6  1  0  0  0  0
  6  7  2  0  0  0  0
  6 39  1  0  0  0  0
  7  8  1  0  0  0  0
  7 40  1  0  0  0  0
  8  9  2  0  0  0  0
  8 11  1  0  0  0  0
  9 10  1  0  0  0  0
  9 41  1  0  0  0  0
 10 42  1  0  0  0  0
 11 15  1  0  0  0  0
 11 12  2  0  0  0  0
 12 13  1  0  0  0  0
 12 29  1  0  0  0  0
 13 14  1  0  0  0  0
 14 15  2  0  0  0  0
 14 16  1  0  0  0  0
 16 17  1  0  0  0  0
 16 43  1  0  0  0  0
 17 18  2  0  0  0  0
 17 19  1  0  0  0  0
 19 20  1  0  0  0  0
 19 25  1  0  0  0  0
 19 21  1  0  0  0  0
 21 22  1  0  0  0  0
 21 44  1  0  0  0  0
 21 45  1  0  0  0  0
 22 23  1  0  0  0  0
 22 46  1  0  0  0  0
 22 47  1  0  0  0  0
 23 24  1  0  0  0  0
 23 48  1  0  0  0  0
 23 49  1  0  0  0  0
 24 25  1  0  0  0  0
 24 50  1  0  0  0  0
 24 51  1  0  0  0  0
 25 26  1  0  0  0  0
 25 27  1  0  0  0  0
 27 28  2  0  0  0  0
 27 55  1  0  0  0  0
 29 52  1  0  0  0  0
 29 53  1  0  0  0  0
 29 54  1  0  0  0  0
M  CHG  1  55  -1
M  END
$$$$
ZINC02755130
  -OEChem-08230709463D

 55 57  0     1  0  0  0  0  0999 V2000
    5.8304    3.5162   -2.9217 C   0  0  0  0  0  0  0  0  0  0  0  0
    5.4068    3.2470   -1.4763 C   0  0  0  0  0  0  0  0  0  0  0  0
    4.0941    2.4611   -1.4675 C   0  0  0  0  0  0  0  0  0  0  0  0
    3.6706    2.1919   -0.0222 C   0  0  0  0  0  0  0  0  0  0  0  0
    2.3775    1.4179   -0.0135 C   0  0  0  0  0  0  0  0  0  0  0  0
    1.1704    2.0932    0.0021 C   0  0  0  0  0  0  0  0  0  0  0  0
   -0.0168    1.3896    0.0097 C   0  0  0  0  0  0  0  0  0  0  0  0
    0.0021   -0.0041    0.0020 C   0  0  0  0  0  0  0  0  0  0  0  0
    1.2214   -0.6792   -0.0133 C   0  0  0  0  0  0  0  0  0  0  0  0
    2.4024    0.0349   -0.0207 C   0  0  0  0  0  0  0  0  0  0  0  0
   -1.2705   -0.7658    0.0106 C   0  0  0  0  0  0  0  0  0  0  0  0
   -1.3727   -1.9461   -0.6717 C   0  0  0  0  0  0  0  0  0  0  0  0
   -3.0668   -2.3909   -0.3121 S   0  0  0  0  0  0  0  0  0  0  0  0
   -3.4599   -0.9716    0.7008 C   0  0  0  0  0  0  0  0  0  0  0  0
   -2.3169   -0.3117    0.6839 N   0  0  0  0  0  0  0  0  0  0  0  0
   -4.6511   -0.6505    1.3401 N   0  0  0  0  0  0  0  0  0  0  0  0
   -5.7148   -1.4715    1.2352 C   0  0  0  0  0  0  0  0  0  0  0  0
   -5.6322   -2.4906    0.5829 O   0  0  0  0  0  0  0  0  0  0  0  0
   -7.0067   -1.1233    1.9286 C   0  0  2  0  0  0  0  0  0  0  0  0
   -7.3738   -0.1677    1.5543 H   0  0  0  0  0  0  0  0  0  0  0  0
   -6.7652   -1.0218    3.4360 C   0  0  0  0  0  0  0  0  0  0  0  0
   -8.0769   -0.6683    4.1399 C   0  0  0  0  0  0  0  0  0  0  0  0
   -9.1146   -1.7576    3.8619 C   0  0  0  0  0  0  0  0  0  0  0  0
   -9.3561   -1.8590    2.3544 C   0  0  0  0  0  0  0  0  0  0  0  0
   -8.0445   -2.2126    1.6505 C   0  0  1  0  0  0  0  0  0  0  0  0
   -7.6774   -3.1682    2.0248 H   0  0  0  0  0  0  0  0  0  0  0  0
   -8.2823   -2.3125    0.1657 C   0  0  0  0  0  0  0  0  0  0  0  0
   -7.6832   -1.5870   -0.5922 O   0  0  0  0  0  0  0  0  0  0  0  0
   -0.3424   -2.6718   -1.4981 C   0  0  0  0  0  0  0  0  0  0  0  0
    6.7656    4.0760   -2.9280 H   0  0  0  0  0  0  0  0  0  0  0  0
    5.9707    2.5685   -3.4417 H   0  0  0  0  0  0  0  0  0  0  0  0
    5.0566    4.0958   -3.4251 H   0  0  0  0  0  0  0  0  0  0  0  0
    5.2665    4.1946   -0.9563 H   0  0  0  0  0  0  0  0  0  0  0  0
    6.1806    2.6674   -0.9729 H   0  0  0  0  0  0  0  0  0  0  0  0
    4.2344    1.5135   -1.9875 H   0  0  0  0  0  0  0  0  0  0  0  0
    3.3203    3.0407   -1.9709 H   0  0  0  0  0  0  0  0  0  0  0  0
    3.5302    3.1396    0.4978 H   0  0  0  0  0  0  0  0  0  0  0  0
    4.4444    1.6124    0.4812 H   0  0  0  0  0  0  0  0  0  0  0  0
    1.1569    3.1731    0.0077 H   0  0  0  0  0  0  0  0  0  0  0  0
   -0.9588    1.9179    0.0170 H   0  0  0  0  0  0  0  0  0  0  0  0
    1.2420   -1.7590   -0.0189 H   0  0  0  0  0  0  0  0  0  0  0  0
    3.3478   -0.4872   -0.0325 H   0  0  0  0  0  0  0  0  0  0  0  0
   -4.7171    0.1646    1.8618 H   0  0  0  0  0  0  0  0  0  0  0  0
   -6.3981   -1.9774    3.8103 H   0  0  0  0  0  0  0  0  0  0  0  0
   -6.0259   -0.2458    3.6341 H   0  0  0  0  0  0  0  0  0  0  0  0
   -8.4440    0.2874    3.7656 H   0  0  0  0  0  0  0  0  0  0  0  0
   -7.9048   -0.5960    5.2138 H   0  0  0  0  0  0  0  0  0  0  0  0
  -10.0491   -1.5057    4.3633 H   0  0  0  0  0  0  0  0  0  0  0  0
   -8.7475   -2.7132    4.2362 H   0  0  0  0  0  0  0  0  0  0  0  0
   -9.7232   -0.9034    1.9801 H   0  0  0  0  0  0  0  0  0  0  0  0
  -10.0954   -2.6351    2.1563 H   0  0  0  0  0  0  0  0  0  0  0  0
    0.2171   -3.3570   -0.8613 H   0  0  0  0  0  0  0  0  0  0  0  0
   -0.8405   -3.2344   -2.2877 H   0  0  0  0  0  0  0  0  0  0  0  0
    0.3414   -1.9489   -1.9429 H   0  0  0  0  0  0  0  0  0  0  0  0
   -9.1597   -3.2076   -0.3147 O   0  5  0  0  0  0  0  0  0  0  0  0
  1  2  1  0  0  0  0
  1 30  1  0  0  0  0
  1 31  1  0  0  0  0
  1 32  1  0  0  0  0
  2  3  1  0  0  0  0
  2 33  1  0  0  0  0
  2 34  1  0  0  0  0
  3  4  1  0  0  0  0
  3 35  1  0  0  0  0
  3 36  1  0  0  0  0
  4  5  1  0  0  0  0
  4 37  1  0  0  0  0
  4 38  1  0  0  0  0
  5 10  2  0  0  0  0
  5  6  1  0  0  0  0
  6  7  2  0  0  0  0
  6 39  1  0  0  0  0
  7  8  1  0  0  0  0
  7 40  1  0  0  0  0
  8  9  2  0  0  0  0
  8 11  1  0  0  0  0
  9 10  1  0  0  0  0
  9 41  1  0  0  0  0
 10 42  1  0  0  0  0
 11 15  1  0  0  0  0
 11 12  2  0  0  0  0
 12 13  1  0  0  0  0
 12 29  1  0  0  0  0
 13 14  1  0  0  0  0
 14 15  2  0  0  0  0
 14 16  1  0  0  0  0
 16 17  1  0  0  0  0
 16 43  1  0  0  0  0
 17 18  2  0  0  0  0
 17 19  1  0  0  0  0
 19 20  1  0  0  0  0
 19 25  1  0  0  0  0
 19 21  1  0  0  0  0
 21 22  1  0  0  0  0
 21 44  1  0  0  0  0
 21 45  1  0  0  0  0
 22 23  1  0  0  0  0
 22 46  1  0  0  0  0
 22 47  1  0  0  0  0
 23 24  1  0  0  0  0
 23 48  1  0  0  0  0
 23 49  1  0  0  0  0
 24 25  1  0  0  0  0
 24 50  1  0  0  0  0
 24 51  1  0  0  0  0
 25 26  1  0  0  0  0
 25 27  1  0  0  0  0
 27 28  2  0  0  0  0
 27 55  1  0  0  0  0
 29 52  1  0  0  0  0
 29 53  1  0  0  0  0
 29 54  1  0  0  0  0
M  CHG  1  55  -1
M  END
$$$$
ZINC02755131
  -OEChem-08230709463D

 55 57  0     1  0  0  0  0  0999 V2000
   -5.6426  -12.2897    2.3554 C   0  0  0  0  0  0  0  0  0  0  0  0
   -6.2834  -11.5425    1.1840 C   0  0  0  0  0  0  0  0  0  0  0  0
   -5.8097  -10.0877    1.1869 C   0  0  0  0  0  0  0  0  0  0  0  0
   -6.4505   -9.3404    0.0155 C   0  0  0  0  0  0  0  0  0  0  0  0
   -5.9840   -7.9075    0.0183 C   0  0  0  0  0  0  0  0  0  0  0  0
   -4.8434   -7.5528   -0.6794 C   0  0  0  0  0  0  0  0  0  0  0  0
   -4.4115   -6.2421   -0.6803 C   0  0  0  0  0  0  0  0  0  0  0  0
   -5.1267   -5.2749    0.0239 C   0  0  0  0  0  0  0  0  0  0  0  0
   -6.2718   -5.6392    0.7302 C   0  0  0  0  0  0  0  0  0  0  0  0
   -6.6978   -6.9519    0.7190 C   0  0  0  0  0  0  0  0  0  0  0  0
   -4.6676   -3.8646    0.0266 C   0  0  0  0  0  0  0  0  0  0  0  0
   -5.5763   -2.8433    0.0415 C   0  0  0  0  0  0  0  0  0  0  0  0
   -4.4835   -1.4279    0.0451 S   0  0  0  0  0  0  0  0  0  0  0  0
   -2.9436   -2.3349    0.0176 C   0  0  0  0  0  0  0  0  0  0  0  0
   -3.3734   -3.5829    0.0150 N   0  0  0  0  0  0  0  0  0  0  0  0
   -1.6400   -1.8540    0.0078 N   0  0  0  0  0  0  0  0  0  0  0  0
   -1.4117   -0.5257    0.0127 C   0  0  0  0  0  0  0  0  0  0  0  0
   -2.3441    0.2498    0.0258 O   0  0  0  0  0  0  0  0  0  0  0  0
    0.0021   -0.0041    0.0020 C   0  0  1  0  0  0  0  0  0  0  0  0
    0.5293   -0.3651    0.8851 H   0  0  0  0  0  0  0  0  0  0  0  0
    0.7182   -0.4975   -1.2568 C   0  0  0  0  0  0  0  0  0  0  0  0
    2.1536    0.0321   -1.2676 C   0  0  0  0  0  0  0  0  0  0  0  0
    2.1328    1.5619   -1.2592 C   0  0  0  0  0  0  0  0  0  0  0  0
    1.4167    2.0553   -0.0004 C   0  0  0  0  0  0  0  0  0  0  0  0
   -0.0187    1.5258    0.0104 C   0  0  2  0  0  0  0  0  0  0  0  0
   -0.5459    1.8868   -0.8726 H   0  0  0  0  0  0  0  0  0  0  0  0
   -0.7240    2.0118    1.2503 C   0  0  0  0  0  0  0  0  0  0  0  0
   -1.1649    1.2162    2.0456 O   0  0  0  0  0  0  0  0  0  0  0  0
   -7.0823   -2.8958    0.0565 C   0  0  0  0  0  0  0  0  0  0  0  0
   -5.9337  -11.8147    3.2922 H   0  0  0  0  0  0  0  0  0  0  0  0
   -5.9800  -13.3262    2.3533 H   0  0  0  0  0  0  0  0  0  0  0  0
   -4.5576  -12.2606    2.2550 H   0  0  0  0  0  0  0  0  0  0  0  0
   -7.3683  -11.5716    1.2844 H   0  0  0  0  0  0  0  0  0  0  0  0
   -5.9923  -12.0176    0.2472 H   0  0  0  0  0  0  0  0  0  0  0  0
   -4.7248  -10.0586    1.0865 H   0  0  0  0  0  0  0  0  0  0  0  0
   -6.1008   -9.6126    2.1237 H   0  0  0  0  0  0  0  0  0  0  0  0
   -7.5355   -9.3695    0.1159 H   0  0  0  0  0  0  0  0  0  0  0  0
   -6.1594   -9.8155   -0.9213 H   0  0  0  0  0  0  0  0  0  0  0  0
   -4.2900   -8.3031   -1.2246 H   0  0  0  0  0  0  0  0  0  0  0  0
   -3.5208   -5.9663   -1.2254 H   0  0  0  0  0  0  0  0  0  0  0  0
   -6.8273   -4.8948    1.2812 H   0  0  0  0  0  0  0  0  0  0  0  0
   -7.5878   -7.2343    1.2616 H   0  0  0  0  0  0  0  0  0  0  0  0
   -0.8943   -2.4742   -0.0027 H   0  0  0  0  0  0  0  0  0  0  0  0
    0.7330   -1.5874   -1.2628 H   0  0  0  0  0  0  0  0  0  0  0  0
    0.1910   -0.1364   -2.1398 H   0  0  0  0  0  0  0  0  0  0  0  0
    2.6808   -0.3290   -0.3846 H   0  0  0  0  0  0  0  0  0  0  0  0
    2.6638   -0.3194   -2.1644 H   0  0  0  0  0  0  0  0  0  0  0  0
    3.1554    1.9392   -1.2670 H   0  0  0  0  0  0  0  0  0  0  0  0
    1.6057    1.9230   -2.1423 H   0  0  0  0  0  0  0  0  0  0  0  0
    1.4019    3.1452    0.0056 H   0  0  0  0  0  0  0  0  0  0  0  0
    1.9439    1.6943    0.8826 H   0  0  0  0  0  0  0  0  0  0  0  0
   -7.4349   -2.9142    1.0877 H   0  0  0  0  0  0  0  0  0  0  0  0
   -7.4815   -2.0162   -0.4484 H   0  0  0  0  0  0  0  0  0  0  0  0
   -7.4196   -3.7950   -0.4590 H   0  0  0  0  0  0  0  0  0  0  0  0
   -0.8625    3.3285    1.4711 O   0  5  0  0  0  0  0  0  0  0  0  0
  1  2  1  0  0  0  0
  1 30  1  0  0  0  0
  1 31  1  0  0  0  0
  1 32  1  0  0  0  0
  2  3  1  0  0  0  0
  2 33  1  0  0  0  0
  2 34  1  0  0  0  0
  3  4  1  0  0  0  0
  3 35  1  0  0  0  0
  3 36  1  0  0  0  0
  4  5  1  0  0  0  0
  4 37  1  0  0  0  0
  4 38  1  0  0  0  0
  5 10  2  0  0  0  0
  5  6  1  0  0  0  0
  6  7  2  0  0  0  0
  6 39  1  0  0  0  0
  7  8  1  0  0  0  0
  7 40  1  0  0  0  0
  8  9  2  0  0  0  0
  8 11  1  0  0  0  0
  9 10  1  0  0  0  0
  9 41  1  0  0  0  0
 10 42  1  0  0  0  0
 11 15  1  0  0  0  0
 11 12  2  0  0  0  0
 12 13  1  0  0  0  0
 12 29  1  0  0  0  0
 13 14  1  0  0  0  0
 14 15  2  0  0  0  0
 14 16  1  0  0  0  0
 16 17  1  0  0  0  0
 16 43  1  0  0  0  0
 17 18  2  0  0  0  0
 17 19  1  0  0  0  0
 19 20  1  0  0  0  0
 19 25  1  0  0  0  0
 19 21  1  0  0  0  0
 21 22  1  0  0  0  0
 21 44  1  0  0  0  0
 21 45  1  0  0  0  0
 22 23  1  0  0  0  0
 22 46  1  0  0  0  0
 22 47  1  0  0  0  0
 23 24  1  0  0  0  0
 23 48  1  0  0  0  0
 23 49  1  0  0  0  0
 24 25  1  0  0  0  0
 24 50  1  0  0  0  0
 24 51  1  0  0  0  0
 25 26  1  0  0  0  0
 25 27  1  0  0  0  0
 27 28  2  0  0  0  0
 27 55  1  0  0  0  0
 29 52  1  0  0  0  0
 29 53  1  0  0  0  0
 29 54  1  0  0  0  0
M  CHG  1  55  -1
M  END
$$$$
ZINC02755132
  -OEChem-08230709463D

 55 57  0     1  0  0  0  0  0999 V2000
   -0.7766    1.6061   -3.7298 C   0  0  0  0  0  0  0  0  0  0  0  0
   -0.0366    1.0992   -2.4903 C   0  0  0  0  0  0  0  0  0  0  0  0
   -0.7527    1.5927   -1.2315 C   0  0  0  0  0  0  0  0  0  0  0  0
   -0.0127    1.0858    0.0080 C   0  0  0  0  0  0  0  0  0  0  0  0
   -0.7181    1.5718    1.2479 C   0  0  0  0  0  0  0  0  0  0  0  0
   -0.3575    2.7800    1.8169 C   0  0  0  0  0  0  0  0  0  0  0  0
   -1.0033    3.2324    2.9495 C   0  0  0  0  0  0  0  0  0  0  0  0
   -2.0136    2.4645    3.5260 C   0  0  0  0  0  0  0  0  0  0  0  0
   -2.3691    1.2453    2.9514 C   0  0  0  0  0  0  0  0  0  0  0  0
   -1.7197    0.8053    1.8159 C   0  0  0  0  0  0  0  0  0  0  0  0
   -2.7075    2.9425    4.7465 C   0  0  0  0  0  0  0  0  0  0  0  0
   -2.0223    3.6421    5.7005 C   0  0  0  0  0  0  0  0  0  0  0  0
   -3.3238    3.9436    6.8890 S   0  0  0  0  0  0  0  0  0  0  0  0
   -4.6321    3.1069    6.0041 C   0  0  0  0  0  0  0  0  0  0  0  0
   -3.9957    2.6910    4.9251 N   0  0  0  0  0  0  0  0  0  0  0  0
   -5.9652    2.9388    6.3580 N   0  0  0  0  0  0  0  0  0  0  0  0
   -6.4235    3.4475    7.5189 C   0  0  0  0  0  0  0  0  0  0  0  0
   -5.6723    4.0521    8.2546 O   0  0  0  0  0  0  0  0  0  0  0  0
   -7.8693    3.2653    7.9028 C   0  0  2  0  0  0  0  0  0  0  0  0
   -8.0949    2.2013    7.9744 H   0  0  0  0  0  0  0  0  0  0  0  0
   -8.7640    3.9059    6.8398 C   0  0  0  0  0  0  0  0  0  0  0  0
   -8.4473    5.3994    6.7393 C   0  0  0  0  0  0  0  0  0  0  0  0
   -8.7040    6.0672    8.0918 C   0  0  0  0  0  0  0  0  0  0  0  0
   -7.8094    5.4266    9.1548 C   0  0  0  0  0  0  0  0  0  0  0  0
   -8.1260    3.9331    9.2553 C   0  0  2  0  0  0  0  0  0  0  0  0
   -9.1718    3.8012    9.5329 H   0  0  0  0  0  0  0  0  0  0  0  0
   -7.2448    3.3020   10.3023 C   0  0  0  0  0  0  0  0  0  0  0  0
   -6.4891    2.4098    9.9981 O   0  0  0  0  0  0  0  0  0  0  0  0
   -0.5714    4.0478    5.7393 C   0  0  0  0  0  0  0  0  0  0  0  0
   -1.7991    1.2288   -3.7221 H   0  0  0  0  0  0  0  0  0  0  0  0
   -0.7913    2.6960   -3.7239 H   0  0  0  0  0  0  0  0  0  0  0  0
   -0.2664    1.2545   -4.6266 H   0  0  0  0  0  0  0  0  0  0  0  0
    0.9860    1.4765   -2.4981 H   0  0  0  0  0  0  0  0  0  0  0  0
   -0.0218    0.0093   -2.4963 H   0  0  0  0  0  0  0  0  0  0  0  0
   -1.7753    1.2154   -1.2238 H   0  0  0  0  0  0  0  0  0  0  0  0
   -0.7675    2.6825   -1.2255 H   0  0  0  0  0  0  0  0  0  0  0  0
    0.0021   -0.0041    0.0020 H   0  0  0  0  0  0  0  0  0  0  0  0
    1.0099    1.4631    0.0003 H   0  0  0  0  0  0  0  0  0  0  0  0
    0.4283    3.3723    1.3717 H   0  0  0  0  0  0  0  0  0  0  0  0
   -0.7238    4.1778    3.3906 H   0  0  0  0  0  0  0  0  0  0  0  0
   -3.1510    0.6461    3.3940 H   0  0  0  0  0  0  0  0  0  0  0  0
   -1.9943   -0.1391    1.3698 H   0  0  0  0  0  0  0  0  0  0  0  0
   -6.5660    2.4553    5.7697 H   0  0  0  0  0  0  0  0  0  0  0  0
   -8.5811    3.4302    5.8763 H   0  0  0  0  0  0  0  0  0  0  0  0
   -9.8097    3.7741    7.1174 H   0  0  0  0  0  0  0  0  0  0  0  0
   -9.0847    5.8558    5.9820 H   0  0  0  0  0  0  0  0  0  0  0  0
   -7.4016    5.5313    6.4617 H   0  0  0  0  0  0  0  0  0  0  0  0
   -9.7498    5.9354    8.3695 H   0  0  0  0  0  0  0  0  0  0  0  0
   -8.4784    7.1312    8.0202 H   0  0  0  0  0  0  0  0  0  0  0  0
   -7.9922    5.9023   10.1183 H   0  0  0  0  0  0  0  0  0  0  0  0
   -6.7636    5.5584    8.8772 H   0  0  0  0  0  0  0  0  0  0  0  0
   -0.4549    5.0253    5.2712 H   0  0  0  0  0  0  0  0  0  0  0  0
   -0.2359    4.0987    6.7751 H   0  0  0  0  0  0  0  0  0  0  0  0
    0.0259    3.3130    5.1996 H   0  0  0  0  0  0  0  0  0  0  0  0
   -7.2995    3.7313   11.5730 O   0  5  0  0  0  0  0  0  0  0  0  0
  1  2  1  0  0  0  0
  1 30  1  0  0  0  0
  1 31  1  0  0  0  0
  1 32  1  0  0  0  0
  2  3  1  0  0  0  0
  2 33  1  0  0  0  0
  2 34  1  0  0  0  0
  3  4  1  0  0  0  0
  3 35  1  0  0  0  0
  3 36  1  0  0  0  0
  4  5  1  0  0  0  0
  4 37  1  0  0  0  0
  4 38  1  0  0  0  0
  5 10  2  0  0  0  0
  5  6  1  0  0  0  0
  6  7  2  0  0  0  0
  6 39  1  0  0  0  0
  7  8  1  0  0  0  0
  7 40  1  0  0  0  0
  8  9  2  0  0  0  0
  8 11  1  0  0  0  0
  9 10  1  0  0  0  0
  9 41  1  0  0  0  0
 10 42  1  0  0  0  0
 11 15  1  0  0  0  0
 11 12  2  0  0  0  0
 12 13  1  0  0  0  0
 12 29  1  0  0  0  0
 13 14  1  0  0  0  0
 14 15  2  0  0  0  0
 14 16  1  0  0  0  0
 16 17  1  0  0  0  0
 16 43  1  0  0  0  0
 17 18  2  0  0  0  0
 17 19  1  0  0  0  0
 19 20  1  0  0  0  0
 19 25  1  0  0  0  0
 19 21  1  0  0  0  0
 21 22  1  0  0  0  0
 21 44  1  0  0  0  0
 21 45  1  0  0  0  0
 22 23  1  0  0  0  0
 22 46  1  0  0  0  0
 22 47  1  0  0  0  0
 23 24  1  0  0  0  0
 23 48  1  0  0  0  0
 23 49  1  0  0  0  0
 24 25  1  0  0  0  0
 24 50  1  0  0  0  0
 24 51  1  0  0  0  0
 25 26  1  0  0  0  0
 25 27  1  0  0  0  0
 27 28  2  0  0  0  0
 27 55  1  0  0  0  0
 29 52  1  0  0  0  0
 29 53  1  0  0  0  0
 29 54  1  0  0  0  0
M  CHG  1  55  -1
M  END
$$$$
ZINC02755223
  -OEChem-08230709463D

 52 54  0     1  0  0  0  0  0999 V2000
    6.6934    6.2007   -3.5019 C   0  0  0  0  0  0  0  0  0  0  0  0
    6.3999    6.8946   -2.1702 C   0  0  0  0  0  0  0  0  0  0  0  0
    5.0953    7.6422   -2.2701 C   0  0  0  0  0  0  0  0  0  0  0  0
    5.0494    8.9254   -2.6789 C   0  0  0  0  0  0  0  0  0  0  0  0
    3.3112    9.3080   -2.6134 S   0  0  0  0  0  0  0  0  0  0  0  0
    2.7025    7.7835   -2.0619 C   0  0  0  0  0  0  0  0  0  0  0  0
    3.8417    7.0164   -1.9321 C   0  0  0  0  0  0  0  0  0  0  0  0
    3.7791    5.6188   -1.4746 C   0  0  0  0  0  0  0  0  0  0  0  0
    4.8001    4.9653   -1.3748 O   0  0  0  0  0  0  0  0  0  0  0  0
    2.5904    5.0633   -1.1664 N   0  0  0  0  0  0  0  0  0  0  0  0
    2.5309    3.7330   -0.7309 N   0  0  0  0  0  0  0  0  0  0  0  0
    1.3422    3.1774   -0.4226 C   0  0  0  0  0  0  0  0  0  0  0  0
    0.3242    3.8291   -0.5222 O   0  0  0  0  0  0  0  0  0  0  0  0
    1.2781    1.7465    0.0458 C   0  0  2  0  0  0  0  0  0  0  0  0
    1.7200    1.0812   -0.6960 H   0  0  0  0  0  0  0  0  0  0  0  0
   -0.1964    1.3340    0.3389 C   0  0  1  0  0  0  0  0  0  0  0  0
   -0.9376    1.6794   -0.3817 H   0  0  0  0  0  0  0  0  0  0  0  0
   -0.1385   -0.2071    0.5666 C   0  0  0  0  0  0  0  0  0  0  0  0
    0.5776   -0.3633    1.9286 C   0  0  0  0  0  0  0  0  0  0  0  0
    0.8744    1.1005    2.3753 C   0  0  1  0  0  0  0  0  0  0  0  0
    1.0710    1.2413    3.4382 H   0  0  0  0  0  0  0  0  0  0  0  0
    1.9943    1.5903    1.4078 C   0  0  1  0  0  0  0  0  0  0  0  0
    2.3939    2.5482    1.7407 H   0  0  0  0  0  0  0  0  0  0  0  0
    3.0951    0.5654    1.3134 C   0  0  0  0  0  0  0  0  0  0  0  0
    3.1116   -0.2207    0.3960 O   0  0  0  0  0  0  0  0  0  0  0  0
   -0.3539    1.8358    1.7924 C   0  0  0  0  0  0  0  0  0  0  0  0
   -1.2386    2.6260    2.3483 C   0  0  0  0  0  0  0  0  0  0  0  0
   -2.3516    3.2126    1.5187 C   0  0  0  0  0  0  0  0  0  0  0  0
   -1.1434    2.9485    3.8173 C   0  0  0  0  0  0  0  0  0  0  0  0
    6.1908    9.8188   -3.0914 C   0  0  0  0  0  0  0  0  0  0  0  0
    5.8901    5.5007   -3.7316 H   0  0  0  0  0  0  0  0  0  0  0  0
    6.7621    6.9473   -4.2932 H   0  0  0  0  0  0  0  0  0  0  0  0
    7.6370    5.6600   -3.4297 H   0  0  0  0  0  0  0  0  0  0  0  0
    7.2032    7.5946   -1.9405 H   0  0  0  0  0  0  0  0  0  0  0  0
    6.3312    6.1480   -1.3790 H   0  0  0  0  0  0  0  0  0  0  0  0
    1.6786    7.5020   -1.8652 H   0  0  0  0  0  0  0  0  0  0  0  0
    1.7762    5.5844   -1.2460 H   0  0  0  0  0  0  0  0  0  0  0  0
    3.3451    3.2118   -0.6513 H   0  0  0  0  0  0  0  0  0  0  0  0
   -1.1447   -0.6235    0.6147 H   0  0  0  0  0  0  0  0  0  0  0  0
    0.4369   -0.6881   -0.2243 H   0  0  0  0  0  0  0  0  0  0  0  0
   -0.0753   -0.8568    2.6485 H   0  0  0  0  0  0  0  0  0  0  0  0
    1.5063   -0.9214    1.8095 H   0  0  0  0  0  0  0  0  0  0  0  0
   -3.2100    2.5410    1.5354 H   0  0  0  0  0  0  0  0  0  0  0  0
   -2.6395    4.1804    1.9292 H   0  0  0  0  0  0  0  0  0  0  0  0
   -2.0104    3.3406    0.4914 H   0  0  0  0  0  0  0  0  0  0  0  0
   -0.2816    2.4374    4.2463 H   0  0  0  0  0  0  0  0  0  0  0  0
   -1.0290    4.0247    3.9463 H   0  0  0  0  0  0  0  0  0  0  0  0
   -2.0509    2.6165    4.3217 H   0  0  0  0  0  0  0  0  0  0  0  0
    6.3599    9.7205   -4.1637 H   0  0  0  0  0  0  0  0  0  0  0  0
    5.9451   10.8543   -2.8558 H   0  0  0  0  0  0  0  0  0  0  0  0
    7.0928    9.5279   -2.5531 H   0  0  0  0  0  0  0  0  0  0  0  0
    4.0572    0.5257    2.2486 O   0  5  0  0  0  0  0  0  0  0  0  0
  1  2  1  0  0  0  0
  1 31  1  0  0  0  0
  1 32  1  0  0  0  0
  1 33  1  0  0  0  0
  2  3  1  0  0  0  0
  2 34  1  0  0  0  0
  2 35  1  0  0  0  0
  3  7  1  0  0  0  0
  3  4  2  0  0  0  0
  4  5  1  0  0  0  0
  4 30  1  0  0  0  0
  5  6  1  0  0  0  0
  6  7  2  0  0  0  0
  6 36  1  0  0  0  0
  7  8  1  0  0  0  0
  8  9  2  0  0  0  0
  8 10  1  0  0  0  0
 10 11  1  0  0  0  0
 10 37  1  0  0  0  0
 11 12  1  0  0  0  0
 11 38  1  0  0  0  0
 12 13  2  0  0  0  0
 12 14  1  0  0  0  0
 14 15  1  0  0  0  0
 14 22  1  0  0  0  0
 14 16  1  0  0  0  0
 16 17  1  0  0  0  0
 16 26  1  0  0  0  0
 16 18  1  0  0  0  0
 18 19  1  0  0  0  0
 18 39  1  0  0  0  0
 18 40  1  0  0  0  0
 19 20  1  0  0  0  0
 19 41  1  0  0  0  0
 19 42  1  0  0  0  0
 20 21  1  0  0  0  0
 20 22  1  0  0  0  0
 20 26  1  0  0  0  0
 22 23  1  0  0  0  0
 22 24  1  0  0  0  0
 24 25  2  0  0  0  0
 24 52  1  0  0  0  0
 26 27  2  0  0  0  0
 27 28  1  0  0  0  0
 27 29  1  0  0  0  0
 28 43  1  0  0  0  0
 28 44  1  0  0  0  0
 28 45  1  0  0  0  0
 29 46  1  0  0  0  0
 29 47  1  0  0  0  0
 29 48  1  0  0  0  0
 30 49  1  0  0  0  0
 30 50  1  0  0  0  0
 30 51  1  0  0  0  0
M  CHG  1  52  -1
M  END
$$$$
ZINC02755708
  -OEChem-08230709463D

 63 65  0     1  0  0  0  0  0999 V2000
   -4.5407    6.5098    5.6424 C   0  0  0  0  0  0  0  0  0  0  0  0
   -3.2809    5.8530    5.3424 O   0  0  0  0  0  0  0  0  0  0  0  0
   -3.3139    4.5159    5.1678 C   0  0  0  0  0  0  0  0  0  0  0  0
   -4.3675    3.9158    5.2639 O   0  0  0  0  0  0  0  0  0  0  0  0
   -2.0811    3.7868    4.8625 C   0  0  0  0  0  0  0  0  0  0  0  0
   -1.6453    3.5716    3.5026 C   0  0  0  0  0  0  0  0  0  0  0  0
   -0.4985    2.8913    3.3261 C   0  0  0  0  0  0  0  0  0  0  0  0
    0.0204    2.5235    4.9894 S   0  0  0  0  0  0  0  0  0  0  0  0
   -1.2724    3.2681    5.8679 C   0  0  0  0  0  0  0  0  0  0  0  0
   -1.4564    3.3321    7.2402 N   0  0  0  0  0  0  0  0  0  0  0  0
   -0.5567    2.7648    8.0679 C   0  0  0  0  0  0  0  0  0  0  0  0
    0.4140    2.1984    7.6120 O   0  0  0  0  0  0  0  0  0  0  0  0
   -0.7567    2.8344    9.5600 C   0  0  1  0  0  0  0  0  0  0  0  0
   -1.8058    3.0321    9.7801 H   0  0  0  0  0  0  0  0  0  0  0  0
   -0.3335    1.5095   10.1980 C   0  0  0  0  0  0  0  0  0  0  0  0
    1.1575    1.3549   10.1278 C   0  0  0  0  0  0  0  0  0  0  0  0
    1.9779    2.3302    9.9009 C   0  0  0  0  0  0  0  0  0  0  0  0
    1.5519    3.7499    9.6665 C   0  0  0  0  0  0  0  0  0  0  0  0
    0.1129    3.9543   10.1452 C   0  0  1  0  0  0  0  0  0  0  0  0
    0.0796    3.9132   11.2339 H   0  0  0  0  0  0  0  0  0  0  0  0
   -0.3944    5.2910    9.6687 C   0  0  0  0  0  0  0  0  0  0  0  0
   -1.3533    5.3470    8.9358 O   0  0  0  0  0  0  0  0  0  0  0  0
    0.1861    2.5272    2.0340 C   0  0  0  0  0  0  0  0  0  0  0  0
   -0.6545    1.4942    1.2811 C   0  0  0  0  0  0  0  0  0  0  0  0
    0.0948    1.0467    0.0242 C   0  0  0  0  0  0  0  0  0  0  0  0
   -0.6876    1.4780   -1.2177 C   0  0  0  0  0  0  0  0  0  0  0  0
   -0.7318    3.0054   -1.2889 C   0  0  0  0  0  0  0  0  0  0  0  0
   -2.1283    3.4942   -0.8988 C   0  0  0  0  0  0  0  0  0  0  0  0
   -2.1859    5.0185   -1.0157 C   0  0  0  0  0  0  0  0  0  0  0  0
   -2.3813    5.6324    0.3716 C   0  0  0  0  0  0  0  0  0  0  0  0
   -1.5308    4.8749    1.3928 C   0  0  0  0  0  0  0  0  0  0  0  0
   -2.4442    4.0881    2.3342 C   0  0  0  0  0  0  0  0  0  0  0  0
   -5.2432    6.3381    4.8269 H   0  0  0  0  0  0  0  0  0  0  0  0
   -4.9509    6.1037    6.5670 H   0  0  0  0  0  0  0  0  0  0  0  0
   -4.3735    7.5806    5.7586 H   0  0  0  0  0  0  0  0  0  0  0  0
   -2.2327    3.7852    7.6049 H   0  0  0  0  0  0  0  0  0  0  0  0
   -0.6496    1.4935   11.2411 H   0  0  0  0  0  0  0  0  0  0  0  0
   -0.8077    0.6846    9.6663 H   0  0  0  0  0  0  0  0  0  0  0  0
    1.5719    0.3687   10.2760 H   0  0  0  0  0  0  0  0  0  0  0  0
    3.0346    2.1083    9.8786 H   0  0  0  0  0  0  0  0  0  0  0  0
    1.6139    3.9746    8.6017 H   0  0  0  0  0  0  0  0  0  0  0  0
    2.2136    4.4208   10.2144 H   0  0  0  0  0  0  0  0  0  0  0  0
    0.2998    3.4201    1.4192 H   0  0  0  0  0  0  0  0  0  0  0  0
    1.1686    2.1074    2.2495 H   0  0  0  0  0  0  0  0  0  0  0  0
   -1.6082    1.9389    0.9968 H   0  0  0  0  0  0  0  0  0  0  0  0
   -0.8327    0.6323    1.9242 H   0  0  0  0  0  0  0  0  0  0  0  0
    0.1979   -0.0384    0.0299 H   0  0  0  0  0  0  0  0  0  0  0  0
    1.0834    1.5054    0.0081 H   0  0  0  0  0  0  0  0  0  0  0  0
   -0.1978    1.0868   -2.1094 H   0  0  0  0  0  0  0  0  0  0  0  0
   -1.7036    1.0875   -1.1606 H   0  0  0  0  0  0  0  0  0  0  0  0
    0.0042    3.4226   -0.6017 H   0  0  0  0  0  0  0  0  0  0  0  0
   -0.5045    3.3285   -2.3048 H   0  0  0  0  0  0  0  0  0  0  0  0
   -2.8679    3.0505   -1.5653 H   0  0  0  0  0  0  0  0  0  0  0  0
   -2.3423    3.2003    0.1287 H   0  0  0  0  0  0  0  0  0  0  0  0
   -1.2543    5.3849   -1.4469 H   0  0  0  0  0  0  0  0  0  0  0  0
   -3.0194    5.3020   -1.6583 H   0  0  0  0  0  0  0  0  0  0  0  0
   -2.0776    6.6790    0.3514 H   0  0  0  0  0  0  0  0  0  0  0  0
   -3.4321    5.5653    0.6534 H   0  0  0  0  0  0  0  0  0  0  0  0
   -0.8657    4.1859    0.8721 H   0  0  0  0  0  0  0  0  0  0  0  0
   -0.9386    5.5847    1.9703 H   0  0  0  0  0  0  0  0  0  0  0  0
   -3.2384    4.7401    2.6978 H   0  0  0  0  0  0  0  0  0  0  0  0
   -2.8834    3.2484    1.7956 H   0  0  0  0  0  0  0  0  0  0  0  0
    0.2191    6.4195   10.0586 O   0  5  0  0  0  0  0  0  0  0  0  0
  1  2  1  0  0  0  0
  1 33  1  0  0  0  0
  1 34  1  0  0  0  0
  1 35  1  0  0  0  0
  2  3  1  0  0  0  0
  3  4  2  0  0  0  0
  3  5  1  0  0  0  0
  5  9  2  0  0  0  0
  5  6  1  0  0  0  0
  6 32  1  0  0  0  0
  6  7  2  0  0  0  0
  7  8  1  0  0  0  0
  7 23  1  0  0  0  0
  8  9  1  0  0  0  0
  9 10  1  0  0  0  0
 10 11  1  0  0  0  0
 10 36  1  0  0  0  0
 11 12  2  0  0  0  0
 11 13  1  0  0  0  0
 13 14  1  0  0  0  0
 13 19  1  0  0  0  0
 13 15  1  0  0  0  0
 15 16  1  0  0  0  0
 15 37  1  0  0  0  0
 15 38  1  0  0  0  0
 16 17  2  0  0  0  0
 16 39  1  0  0  0  0
 17 18  1  0  0  0  0
 17 40  1  0  0  0  0
 18 19  1  0  0  0  0
 18 41  1  0  0  0  0
 18 42  1  0  0  0  0
 19 20  1  0  0  0  0
 19 21  1  0  0  0  0
 21 22  2  0  0  0  0
 21 63  1  0  0  0  0
 23 24  1  0  0  0  0
 23 43  1  0  0  0  0
 23 44  1  0  0  0  0
 24 25  1  0  0  0  0
 24 45  1  0  0  0  0
 24 46  1  0  0  0  0
 25 26  1  0  0  0  0
 25 47  1  0  0  0  0
 25 48  1  0  0  0  0
 26 27  1  0  0  0  0
 26 49  1  0  0  0  0
 26 50  1  0  0  0  0
 27 28  1  0  0  0  0
 27 51  1  0  0  0  0
 27 52  1  0  0  0  0
 28 29  1  0  0  0  0
 28 53  1  0  0  0  0
 28 54  1  0  0  0  0
 29 30  1  0  0  0  0
 29 55  1  0  0  0  0
 29 56  1  0  0  0  0
 30 31  1  0  0  0  0
 30 57  1  0  0  0  0
 30 58  1  0  0  0  0
 31 32  1  0  0  0  0
 31 59  1  0  0  0  0
 31 60  1  0  0  0  0
 32 61  1  0  0  0  0
 32 62  1  0  0  0  0
M  CHG  1  63  -1
M  END
$$$$
ZINC02755711
  -OEChem-08230709463D

 63 65  0     1  0  0  0  0  0999 V2000
   -4.8668    5.6048   -2.7072 C   0  0  0  0  0  0  0  0  0  0  0  0
   -4.2345    4.3361   -2.3927 O   0  0  0  0  0  0  0  0  0  0  0  0
   -2.9581    4.1713   -2.7965 C   0  0  0  0  0  0  0  0  0  0  0  0
   -2.3896    5.0644   -3.3955 O   0  0  0  0  0  0  0  0  0  0  0  0
   -2.2569    2.9172   -2.5139 C   0  0  0  0  0  0  0  0  0  0  0  0
   -1.4967    2.7312   -1.3004 C   0  0  0  0  0  0  0  0  0  0  0  0
   -0.8843    1.5455   -1.1349 C   0  0  0  0  0  0  0  0  0  0  0  0
   -1.3245    0.6475   -2.6089 S   0  0  0  0  0  0  0  0  0  0  0  0
   -2.2900    1.8465   -3.4016 C   0  0  0  0  0  0  0  0  0  0  0  0
   -2.9381    1.7606   -4.6238 N   0  0  0  0  0  0  0  0  0  0  0  0
   -2.8557    0.6296   -5.3522 C   0  0  0  0  0  0  0  0  0  0  0  0
   -2.2146   -0.3130   -4.9382 O   0  0  0  0  0  0  0  0  0  0  0  0
   -3.5603    0.5361   -6.6810 C   0  0  2  0  0  0  0  0  0  0  0  0
   -4.3565    1.2792   -6.7266 H   0  0  0  0  0  0  0  0  0  0  0  0
   -4.1487   -0.8659   -6.8538 C   0  0  0  0  0  0  0  0  0  0  0  0
   -3.0488   -1.8668   -7.0552 C   0  0  0  0  0  0  0  0  0  0  0  0
   -1.8382   -1.5561   -7.3918 C   0  0  0  0  0  0  0  0  0  0  0  0
   -1.3627   -0.1508   -7.6180 C   0  0  0  0  0  0  0  0  0  0  0  0
   -2.5576    0.7846   -7.8149 C   0  0  2  0  0  0  0  0  0  0  0  0
   -3.0310    0.5773   -8.7746 H   0  0  0  0  0  0  0  0  0  0  0  0
   -2.0955    2.2185   -7.7774 C   0  0  0  0  0  0  0  0  0  0  0  0
   -2.5220    2.9687   -6.9317 O   0  0  0  0  0  0  0  0  0  0  0  0
   -0.0303    1.0835    0.0175 C   0  0  0  0  0  0  0  0  0  0  0  0
   -0.7988    1.2553    1.3288 C   0  0  0  0  0  0  0  0  0  0  0  0
    0.1298    0.9406    2.5055 C   0  0  0  0  0  0  0  0  0  0  0  0
    0.1410    2.1225    3.4773 C   0  0  0  0  0  0  0  0  0  0  0  0
    0.9935    3.2531    2.8969 C   0  0  0  0  0  0  0  0  0  0  0  0
    0.1194    4.4889    2.6744 C   0  0  0  0  0  0  0  0  0  0  0  0
    0.8429    5.4644    1.7444 C   0  0  0  0  0  0  0  0  0  0  0  0
   -0.0355    5.7576    0.5272 C   0  0  0  0  0  0  0  0  0  0  0  0
   -0.0543    4.5368   -0.3954 C   0  0  0  0  0  0  0  0  0  0  0  0
   -1.3995    3.8201   -0.2632 C   0  0  0  0  0  0  0  0  0  0  0  0
   -4.3056    6.4156   -2.2427 H   0  0  0  0  0  0  0  0  0  0  0  0
   -4.8811    5.7455   -3.7880 H   0  0  0  0  0  0  0  0  0  0  0  0
   -5.8884    5.6057   -2.3272 H   0  0  0  0  0  0  0  0  0  0  0  0
   -3.4509    2.5144   -4.9549 H   0  0  0  0  0  0  0  0  0  0  0  0
   -4.7195   -1.1304   -5.9637 H   0  0  0  0  0  0  0  0  0  0  0  0
   -4.8096   -0.8760   -7.7206 H   0  0  0  0  0  0  0  0  0  0  0  0
   -3.2820   -2.9113   -6.9105 H   0  0  0  0  0  0  0  0  0  0  0  0
   -1.1260   -2.3582   -7.5181 H   0  0  0  0  0  0  0  0  0  0  0  0
   -0.7309   -0.1217   -8.5057 H   0  0  0  0  0  0  0  0  0  0  0  0
   -0.7860    0.1769   -6.7531 H   0  0  0  0  0  0  0  0  0  0  0  0
    0.2245    0.0324   -0.1185 H   0  0  0  0  0  0  0  0  0  0  0  0
    0.8836    1.6766    0.0523 H   0  0  0  0  0  0  0  0  0  0  0  0
   -1.1536    2.2827    1.4102 H   0  0  0  0  0  0  0  0  0  0  0  0
   -1.6499    0.5744    1.3432 H   0  0  0  0  0  0  0  0  0  0  0  0
    1.1398    0.7652    2.1352 H   0  0  0  0  0  0  0  0  0  0  0  0
   -0.2278    0.0495    3.0215 H   0  0  0  0  0  0  0  0  0  0  0  0
    0.5607    1.8042    4.4315 H   0  0  0  0  0  0  0  0  0  0  0  0
   -0.8784    2.4775    3.6291 H   0  0  0  0  0  0  0  0  0  0  0  0
    1.4209    2.9344    1.9461 H   0  0  0  0  0  0  0  0  0  0  0  0
    1.7964    3.4965    3.5927 H   0  0  0  0  0  0  0  0  0  0  0  0
   -0.0738    4.9743    3.6310 H   0  0  0  0  0  0  0  0  0  0  0  0
   -0.8257    4.1887    2.2218 H   0  0  0  0  0  0  0  0  0  0  0  0
    1.7836    5.0227    1.4155 H   0  0  0  0  0  0  0  0  0  0  0  0
    1.0449    6.3929    2.2785 H   0  0  0  0  0  0  0  0  0  0  0  0
    0.3664    6.6148   -0.0129 H   0  0  0  0  0  0  0  0  0  0  0  0
   -1.0505    5.9793    0.8568 H   0  0  0  0  0  0  0  0  0  0  0  0
    0.7493    3.8562   -0.1141 H   0  0  0  0  0  0  0  0  0  0  0  0
    0.0862    4.8587   -1.4272 H   0  0  0  0  0  0  0  0  0  0  0  0
   -2.2081    4.5358   -0.4115 H   0  0  0  0  0  0  0  0  0  0  0  0
   -1.4811    3.3821    0.7316 H   0  0  0  0  0  0  0  0  0  0  0  0
   -1.2101    2.6623   -8.6834 O   0  5  0  0  0  0  0  0  0  0  0  0
  1  2  1  0  0  0  0
  1 33  1  0  0  0  0
  1 34  1  0  0  0  0
  1 35  1  0  0  0  0
  2  3  1  0  0  0  0
  3  4  2  0  0  0  0
  3  5  1  0  0  0  0
  5  9  2  0  0  0  0
  5  6  1  0  0  0  0
  6 32  1  0  0  0  0
  6  7  2  0  0  0  0
  7  8  1  0  0  0  0
  7 23  1  0  0  0  0
  8  9  1  0  0  0  0
  9 10  1  0  0  0  0
 10 11  1  0  0  0  0
 10 36  1  0  0  0  0
 11 12  2  0  0  0  0
 11 13  1  0  0  0  0
 13 14  1  0  0  0  0
 13 19  1  0  0  0  0
 13 15  1  0  0  0  0
 15 16  1  0  0  0  0
 15 37  1  0  0  0  0
 15 38  1  0  0  0  0
 16 17  2  0  0  0  0
 16 39  1  0  0  0  0
 17 18  1  0  0  0  0
 17 40  1  0  0  0  0
 18 19  1  0  0  0  0
 18 41  1  0  0  0  0
 18 42  1  0  0  0  0
 19 20  1  0  0  0  0
 19 21  1  0  0  0  0
 21 22  2  0  0  0  0
 21 63  1  0  0  0  0
 23 24  1  0  0  0  0
 23 43  1  0  0  0  0
 23 44  1  0  0  0  0
 24 25  1  0  0  0  0
 24 45  1  0  0  0  0
 24 46  1  0  0  0  0
 25 26  1  0  0  0  0
 25 47  1  0  0  0  0
 25 48  1  0  0  0  0
 26 27  1  0  0  0  0
 26 49  1  0  0  0  0
 26 50  1  0  0  0  0
 27 28  1  0  0  0  0
 27 51  1  0  0  0  0
 27 52  1  0  0  0  0
 28 29  1  0  0  0  0
 28 53  1  0  0  0  0
 28 54  1  0  0  0  0
 29 30  1  0  0  0  0
 29 55  1  0  0  0  0
 29 56  1  0  0  0  0
 30 31  1  0  0  0  0
 30 57  1  0  0  0  0
 30 58  1  0  0  0  0
 31 32  1  0  0  0  0
 31 59  1  0  0  0  0
 31 60  1  0  0  0  0
 32 61  1  0  0  0  0
 32 62  1  0  0  0  0
M  CHG  1  63  -1
M  END
$$$$
ZINC02758377
  -OEChem-08230709463D

 53 54  0     0  0  0  0  0  0999 V2000
    3.2643   -2.9258    2.4873 C   0  0  0  0  0  0  0  0  0  0  0  0
    3.1468   -2.3497    1.0748 C   0  0  0  0  0  0  0  0  0  0  0  0
    2.8785   -0.9249    1.1540 O   0  0  0  0  0  0  0  0  0  0  0  0
    2.7460   -0.2609   -0.0128 C   0  0  0  0  0  0  0  0  0  0  0  0
    2.8519   -0.8576   -1.0676 O   0  0  0  0  0  0  0  0  0  0  0  0
    2.4748    1.1767   -0.0096 C   0  0  0  0  0  0  0  0  0  0  0  0
    3.5470    2.1532   -0.0197 C   0  0  0  0  0  0  0  0  0  0  0  0
    3.1818    3.4612   -0.0088 C   0  0  0  0  0  0  0  0  0  0  0  0
    1.4028    3.3899    0.0075 S   0  0  0  0  0  0  0  0  0  0  0  0
    1.1773    1.6737   -0.0002 C   0  0  0  0  0  0  0  0  0  0  0  0
   -0.0111    0.9658    0.0074 N   0  0  0  0  0  0  0  0  0  0  0  0
   -1.1873    1.6238    0.0165 C   0  0  0  0  0  0  0  0  0  0  0  0
   -1.2038    2.8392    0.0232 O   0  0  0  0  0  0  0  0  0  0  0  0
   -2.4550    0.8687    0.0184 C   0  0  0  0  0  0  0  0  0  0  0  0
   -3.6275    1.5246    0.0275 C   0  0  0  0  0  0  0  0  0  0  0  0
   -4.8944    0.7700    0.0294 C   0  0  0  0  0  0  0  0  0  0  0  0
   -4.8779   -0.4444    0.0228 O   0  0  0  0  0  0  0  0  0  0  0  0
    4.0688    4.6795   -0.0107 C   0  0  0  0  0  0  0  0  0  0  0  0
    4.9715    1.7438   -0.0354 C   0  0  0  0  0  0  0  0  0  0  0  0
    5.4914    1.0613   -1.1345 C   0  0  0  0  0  0  0  0  0  0  0  0
    6.8195    0.6869   -1.1455 C   0  0  0  0  0  0  0  0  0  0  0  0
    7.6321    0.9781   -0.0644 C   0  0  0  0  0  0  0  0  0  0  0  0
    7.1205    1.6503    1.0311 C   0  0  0  0  0  0  0  0  0  0  0  0
    5.7953    2.0345    1.0512 C   0  0  0  0  0  0  0  0  0  0  0  0
    9.0801    0.5609   -0.0800 C   0  0  0  0  0  0  0  0  0  0  0  0
    9.3520   -0.3814    1.0943 C   0  0  0  0  0  0  0  0  0  0  0  0
    9.3893   -0.1593   -1.3940 C   0  0  0  0  0  0  0  0  0  0  0  0
    9.9692    1.7999    0.0439 C   0  0  0  0  0  0  0  0  0  0  0  0
    3.4658   -3.9954    2.4279 H   0  0  0  0  0  0  0  0  0  0  0  0
    4.0800   -2.4312    3.0147 H   0  0  0  0  0  0  0  0  0  0  0  0
    2.3310   -2.7612    3.0257 H   0  0  0  0  0  0  0  0  0  0  0  0
    2.3311   -2.8443    0.5474 H   0  0  0  0  0  0  0  0  0  0  0  0
    4.0802   -2.5143    0.5365 H   0  0  0  0  0  0  0  0  0  0  0  0
    0.0021   -0.0041    0.0020 H   0  0  0  0  0  0  0  0  0  0  0  0
   -2.4403   -0.2112    0.0125 H   0  0  0  0  0  0  0  0  0  0  0  0
   -3.6421    2.6045    0.0335 H   0  0  0  0  0  0  0  0  0  0  0  0
    3.4518    5.5781    0.0003 H   0  0  0  0  0  0  0  0  0  0  0  0
    4.7066    4.6659    0.8731 H   0  0  0  0  0  0  0  0  0  0  0  0
    4.6893    4.6759   -0.9068 H   0  0  0  0  0  0  0  0  0  0  0  0
    4.8569    0.8295   -1.9771 H   0  0  0  0  0  0  0  0  0  0  0  0
    7.2244    0.1618   -1.9980 H   0  0  0  0  0  0  0  0  0  0  0  0
    7.7597    1.8753    1.8721 H   0  0  0  0  0  0  0  0  0  0  0  0
    5.3969    2.5589    1.9071 H   0  0  0  0  0  0  0  0  0  0  0  0
    8.7186   -1.2641    1.0060 H   0  0  0  0  0  0  0  0  0  0  0  0
   10.3993   -0.6832    1.0831 H   0  0  0  0  0  0  0  0  0  0  0  0
    9.1317    0.1316    2.0304 H   0  0  0  0  0  0  0  0  0  0  0  0
    9.1956    0.5120   -2.2306 H   0  0  0  0  0  0  0  0  0  0  0  0
   10.4366   -0.4611   -1.4052 H   0  0  0  0  0  0  0  0  0  0  0  0
    8.7559   -1.0420   -1.4823 H   0  0  0  0  0  0  0  0  0  0  0  0
    9.7489    2.3130    0.9801 H   0  0  0  0  0  0  0  0  0  0  0  0
   11.0165    1.4981    0.0327 H   0  0  0  0  0  0  0  0  0  0  0  0
    9.7755    2.4712   -0.7926 H   0  0  0  0  0  0  0  0  0  0  0  0
   -6.0705    1.4279    0.0386 O   0  5  0  0  0  0  0  0  0  0  0  0
  1  2  1  0  0  0  0
  1 29  1  0  0  0  0
  1 30  1  0  0  0  0
  1 31  1  0  0  0  0
  2  3  1  0  0  0  0
  2 32  1  0  0  0  0
  2 33  1  0  0  0  0
  3  4  1  0  0  0  0
  4  5  2  0  0  0  0
  4  6  1  0  0  0  0
  6 10  2  0  0  0  0
  6  7  1  0  0  0  0
  7  8  2  0  0  0  0
  7 19  1  0  0  0  0
  8  9  1  0  0  0  0
  8 18  1  0  0  0  0
  9 10  1  0  0  0  0
 10 11  1  0  0  0  0
 11 12  1  0  0  0  0
 11 34  1  0  0  0  0
 12 13  2  0  0  0  0
 12 14  1  0  0  0  0
 14 15  2  0  0  0  0
 14 35  1  0  0  0  0
 15 16  1  0  0  0  0
 15 36  1  0  0  0  0
 16 17  2  0  0  0  0
 16 53  1  0  0  0  0
 18 37  1  0  0  0  0
 18 38  1  0  0  0  0
 18 39  1  0  0  0  0
 19 24  2  0  0  0  0
 19 20  1  0  0  0  0
 20 21  2  0  0  0  0
 20 40  1  0  0  0  0
 21 22  1  0  0  0  0
 21 41  1  0  0  0  0
 22 23  2  0  0  0  0
 22 25  1  0  0  0  0
 23 24  1  0  0  0  0
 23 42  1  0  0  0  0
 24 43  1  0  0  0  0
 25 26  1  0  0  0  0
 25 27  1  0  0  0  0
 25 28  1  0  0  0  0
 26 44  1  0  0  0  0
 26 45  1  0  0  0  0
 26 46  1  0  0  0  0
 27 47  1  0  0  0  0
 27 48  1  0  0  0  0
 27 49  1  0  0  0  0
 28 50  1  0  0  0  0
 28 51  1  0  0  0  0
 28 52  1  0  0  0  0
M  CHG  1  53  -1
M  END
$$$$
ZINC02758925
  -OEChem-08230709463D

 53 54  0     0  0  0  0  0  0999 V2000
    3.2643   -2.9258    2.4873 C   0  0  0  0  0  0  0  0  0  0  0  0
    3.1468   -2.3497    1.0748 C   0  0  0  0  0  0  0  0  0  0  0  0
    2.8785   -0.9249    1.1540 O   0  0  0  0  0  0  0  0  0  0  0  0
    2.7460   -0.2609   -0.0128 C   0  0  0  0  0  0  0  0  0  0  0  0
    2.8519   -0.8576   -1.0676 O   0  0  0  0  0  0  0  0  0  0  0  0
    2.4748    1.1767   -0.0096 C   0  0  0  0  0  0  0  0  0  0  0  0
    3.5470    2.1532   -0.0197 C   0  0  0  0  0  0  0  0  0  0  0  0
    3.1818    3.4612   -0.0088 C   0  0  0  0  0  0  0  0  0  0  0  0
    1.4028    3.3899    0.0075 S   0  0  0  0  0  0  0  0  0  0  0  0
    1.1773    1.6737   -0.0002 C   0  0  0  0  0  0  0  0  0  0  0  0
   -0.0111    0.9658    0.0074 N   0  0  0  0  0  0  0  0  0  0  0  0
   -1.1873    1.6238    0.0165 C   0  0  0  0  0  0  0  0  0  0  0  0
   -1.2038    2.8392    0.0232 O   0  0  0  0  0  0  0  0  0  0  0  0
   -2.4550    0.8687    0.0184 C   0  0  0  0  0  0  0  0  0  0  0  0
   -3.6275    1.5246    0.0275 C   0  0  0  0  0  0  0  0  0  0  0  0
   -4.8944    0.7700    0.0294 C   0  0  0  0  0  0  0  0  0  0  0  0
   -4.8779   -0.4444    0.0228 O   0  0  0  0  0  0  0  0  0  0  0  0
    4.0688    4.6795   -0.0107 C   0  0  0  0  0  0  0  0  0  0  0  0
    4.9715    1.7438   -0.0354 C   0  0  0  0  0  0  0  0  0  0  0  0
    5.4914    1.0613   -1.1345 C   0  0  0  0  0  0  0  0  0  0  0  0
    6.8195    0.6869   -1.1455 C   0  0  0  0  0  0  0  0  0  0  0  0
    7.6321    0.9781   -0.0644 C   0  0  0  0  0  0  0  0  0  0  0  0
    7.1205    1.6503    1.0311 C   0  0  0  0  0  0  0  0  0  0  0  0
    5.7953    2.0345    1.0512 C   0  0  0  0  0  0  0  0  0  0  0  0
    9.0801    0.5609   -0.0800 C   0  0  0  0  0  0  0  0  0  0  0  0
    9.2138   -0.8397    0.5212 C   0  0  0  0  0  0  0  0  0  0  0  0
   10.6627   -1.3139    0.3921 C   0  0  0  0  0  0  0  0  0  0  0  0
    8.8198   -0.8001    1.9991 C   0  0  0  0  0  0  0  0  0  0  0  0
    4.0800   -2.4312    3.0147 H   0  0  0  0  0  0  0  0  0  0  0  0
    2.3310   -2.7612    3.0257 H   0  0  0  0  0  0  0  0  0  0  0  0
    3.4658   -3.9954    2.4279 H   0  0  0  0  0  0  0  0  0  0  0  0
    2.3311   -2.8443    0.5474 H   0  0  0  0  0  0  0  0  0  0  0  0
    4.0802   -2.5143    0.5365 H   0  0  0  0  0  0  0  0  0  0  0  0
    0.0021   -0.0041    0.0020 H   0  0  0  0  0  0  0  0  0  0  0  0
   -2.4403   -0.2112    0.0125 H   0  0  0  0  0  0  0  0  0  0  0  0
   -3.6421    2.6045    0.0335 H   0  0  0  0  0  0  0  0  0  0  0  0
    3.4518    5.5781    0.0003 H   0  0  0  0  0  0  0  0  0  0  0  0
    4.7066    4.6659    0.8731 H   0  0  0  0  0  0  0  0  0  0  0  0
    4.6893    4.6759   -0.9068 H   0  0  0  0  0  0  0  0  0  0  0  0
    4.8569    0.8295   -1.9771 H   0  0  0  0  0  0  0  0  0  0  0  0
    7.2244    0.1618   -1.9980 H   0  0  0  0  0  0  0  0  0  0  0  0
    7.7595    1.8747    1.8724 H   0  0  0  0  0  0  0  0  0  0  0  0
    5.3969    2.5589    1.9071 H   0  0  0  0  0  0  0  0  0  0  0  0
    9.4445    0.5517   -1.1072 H   0  0  0  0  0  0  0  0  0  0  0  0
    9.6677    1.2662    0.5077 H   0  0  0  0  0  0  0  0  0  0  0  0
    8.5575   -1.5279   -0.0115 H   0  0  0  0  0  0  0  0  0  0  0  0
   11.3191   -0.6257    0.9248 H   0  0  0  0  0  0  0  0  0  0  0  0
   10.7580   -2.3117    0.8204 H   0  0  0  0  0  0  0  0  0  0  0  0
   10.9434   -1.3421   -0.6607 H   0  0  0  0  0  0  0  0  0  0  0  0
    9.4762   -0.1119    2.5317 H   0  0  0  0  0  0  0  0  0  0  0  0
    7.7876   -0.4623    2.0910 H   0  0  0  0  0  0  0  0  0  0  0  0
    8.9151   -1.7979    2.4273 H   0  0  0  0  0  0  0  0  0  0  0  0
   -6.0705    1.4279    0.0386 O   0  5  0  0  0  0  0  0  0  0  0  0
  1  2  1  0  0  0  0
  1 29  1  0  0  0  0
  1 30  1  0  0  0  0
  1 31  1  0  0  0  0
  2  3  1  0  0  0  0
  2 32  1  0  0  0  0
  2 33  1  0  0  0  0
  3  4  1  0  0  0  0
  4  5  2  0  0  0  0
  4  6  1  0  0  0  0
  6 10  2  0  0  0  0
  6  7  1  0  0  0  0
  7  8  2  0  0  0  0
  7 19  1  0  0  0  0
  8  9  1  0  0  0  0
  8 18  1  0  0  0  0
  9 10  1  0  0  0  0
 10 11  1  0  0  0  0
 11 12  1  0  0  0  0
 11 34  1  0  0  0  0
 12 13  2  0  0  0  0
 12 14  1  0  0  0  0
 14 15  2  0  0  0  0
 14 35  1  0  0  0  0
 15 16  1  0  0  0  0
 15 36  1  0  0  0  0
 16 17  2  0  0  0  0
 16 53  1  0  0  0  0
 18 37  1  0  0  0  0
 18 38  1  0  0  0  0
 18 39  1  0  0  0  0
 19 24  2  0  0  0  0
 19 20  1  0  0  0  0
 20 21  2  0  0  0  0
 20 40  1  0  0  0  0
 21 22  1  0  0  0  0
 21 41  1  0  0  0  0
 22 23  2  0  0  0  0
 22 25  1  0  0  0  0
 23 24  1  0  0  0  0
 23 42  1  0  0  0  0
 24 43  1  0  0  0  0
 25 26  1  0  0  0  0
 25 44  1  0  0  0  0
 25 45  1  0  0  0  0
 26 27  1  0  0  0  0
 26 28  1  0  0  0  0
 26 46  1  0  0  0  0
 27 47  1  0  0  0  0
 27 48  1  0  0  0  0
 27 49  1  0  0  0  0
 28 50  1  0  0  0  0
 28 51  1  0  0  0  0
 28 52  1  0  0  0  0
M  CHG  1  53  -1
M  END
$$$$
ZINC02759659
  -OEChem-08230709463D

 56 58  0     1  0  0  0  0  0999 V2000
   -4.0172   11.3671   -6.4886 C   0  0  0  0  0  0  0  0  0  0  0  0
   -3.4454   10.3381   -5.5477 C   0  0  0  0  0  0  0  0  0  0  0  0
   -2.4179    9.5135   -5.9702 C   0  0  0  0  0  0  0  0  0  0  0  0
   -1.8871    8.5728   -5.1117 C   0  0  0  0  0  0  0  0  0  0  0  0
   -2.3950    8.4475   -3.8191 C   0  0  0  0  0  0  0  0  0  0  0  0
   -3.4300    9.2814   -3.3988 C   0  0  0  0  0  0  0  0  0  0  0  0
   -3.9497   10.2219   -4.2650 C   0  0  0  0  0  0  0  0  0  0  0  0
   -5.0690   11.1238   -3.8124 C   0  0  0  0  0  0  0  0  0  0  0  0
   -1.8322    7.4357   -2.8935 C   0  0  0  0  0  0  0  0  0  0  0  0
   -1.1717    7.7941   -1.7631 C   0  0  0  0  0  0  0  0  0  0  0  0
   -0.7247    6.2310   -1.0368 S   0  0  0  0  0  0  0  0  0  0  0  0
   -1.3942    5.1563   -2.2171 C   0  0  0  0  0  0  0  0  0  0  0  0
   -1.9600    6.0138   -3.1514 C   0  0  0  0  0  0  0  0  0  0  0  0
   -2.6505    5.5082   -4.3378 C   0  0  0  0  0  0  0  0  0  0  0  0
   -3.8452    5.2825   -4.2963 O   0  0  0  0  0  0  0  0  0  0  0  0
   -1.9625    5.2922   -5.4779 O   0  0  0  0  0  0  0  0  0  0  0  0
   -2.7124    4.7899   -6.6152 C   0  0  0  0  0  0  0  0  0  0  0  0
   -1.3754    3.7708   -2.2248 N   0  0  0  0  0  0  0  0  0  0  0  0
   -0.7731    3.0995   -1.2232 C   0  0  0  0  0  0  0  0  0  0  0  0
   -0.2476    3.7081   -0.3153 O   0  0  0  0  0  0  0  0  0  0  0  0
   -0.7527    1.5927   -1.2315 C   0  0  1  0  0  0  0  0  0  0  0  0
   -1.7753    1.2154   -1.2238 H   0  0  0  0  0  0  0  0  0  0  0  0
   -0.0366    1.0992   -2.4903 C   0  0  0  0  0  0  0  0  0  0  0  0
    1.3988    1.6288   -2.5012 C   0  0  0  0  0  0  0  0  0  0  0  0
    2.1388    1.1220   -1.2617 C   0  0  0  0  0  0  0  0  0  0  0  0
    1.4227    1.6154   -0.0028 C   0  0  0  0  0  0  0  0  0  0  0  0
   -0.0127    1.0858    0.0080 C   0  0  1  0  0  0  0  0  0  0  0  0
    0.0021   -0.0041    0.0020 H   0  0  0  0  0  0  0  0  0  0  0  0
   -0.7181    1.5718    1.2479 C   0  0  0  0  0  0  0  0  0  0  0  0
   -1.7108    2.2536    1.1502 O   0  0  0  0  0  0  0  0  0  0  0  0
   -0.8896    9.1807   -1.2446 C   0  0  0  0  0  0  0  0  0  0  0  0
   -3.4667   12.3019   -6.3827 H   0  0  0  0  0  0  0  0  0  0  0  0
   -3.9312   11.0090   -7.5145 H   0  0  0  0  0  0  0  0  0  0  0  0
   -5.0673   11.5347   -6.2491 H   0  0  0  0  0  0  0  0  0  0  0  0
   -2.0279    9.6090   -6.9728 H   0  0  0  0  0  0  0  0  0  0  0  0
   -1.0823    7.9325   -5.4413 H   0  0  0  0  0  0  0  0  0  0  0  0
   -3.8243    9.1918   -2.3974 H   0  0  0  0  0  0  0  0  0  0  0  0
   -4.6508   12.0281   -3.3703 H   0  0  0  0  0  0  0  0  0  0  0  0
   -5.6889   11.3910   -4.6682 H   0  0  0  0  0  0  0  0  0  0  0  0
   -5.6768   10.6047   -3.0714 H   0  0  0  0  0  0  0  0  0  0  0  0
   -3.1626    3.8309   -6.3587 H   0  0  0  0  0  0  0  0  0  0  0  0
   -3.4961    5.5010   -6.8764 H   0  0  0  0  0  0  0  0  0  0  0  0
   -2.0414    4.6607   -7.4644 H   0  0  0  0  0  0  0  0  0  0  0  0
   -1.7958    3.2840   -2.9509 H   0  0  0  0  0  0  0  0  0  0  0  0
   -0.5637    1.4603   -3.3734 H   0  0  0  0  0  0  0  0  0  0  0  0
   -0.0218    0.0093   -2.4963 H   0  0  0  0  0  0  0  0  0  0  0  0
    1.3840    2.7187   -2.4952 H   0  0  0  0  0  0  0  0  0  0  0  0
    1.9090    1.2773   -3.3980 H   0  0  0  0  0  0  0  0  0  0  0  0
    3.1614    1.4993   -1.2694 H   0  0  0  0  0  0  0  0  0  0  0  0
    2.1536    0.0321   -1.2676 H   0  0  0  0  0  0  0  0  0  0  0  0
    1.4079    2.7053    0.0031 H   0  0  0  0  0  0  0  0  0  0  0  0
    1.9499    1.2543    0.8802 H   0  0  0  0  0  0  0  0  0  0  0  0
   -1.7067    9.4998   -0.5976 H   0  0  0  0  0  0  0  0  0  0  0  0
    0.0414    9.1743   -0.6778 H   0  0  0  0  0  0  0  0  0  0  0  0
   -0.7996    9.8709   -2.0835 H   0  0  0  0  0  0  0  0  0  0  0  0
   -0.2435    1.2473    2.4608 O   0  5  0  0  0  0  0  0  0  0  0  0
  1  2  1  0  0  0  0
  1 32  1  0  0  0  0
  1 33  1  0  0  0  0
  1 34  1  0  0  0  0
  2  7  2  0  0  0  0
  2  3  1  0  0  0  0
  3  4  2  0  0  0  0
  3 35  1  0  0  0  0
  4  5  1  0  0  0  0
  4 36  1  0  0  0  0
  5  6  2  0  0  0  0
  5  9  1  0  0  0  0
  6  7  1  0  0  0  0
  6 37  1  0  0  0  0
  7  8  1  0  0  0  0
  8 38  1  0  0  0  0
  8 39  1  0  0  0  0
  8 40  1  0  0  0  0
  9 13  1  0  0  0  0
  9 10  2  0  0  0  0
 10 11  1  0  0  0  0
 10 31  1  0  0  0  0
 11 12  1  0  0  0  0
 12 13  2  0  0  0  0
 12 18  1  0  0  0  0
 13 14  1  0  0  0  0
 14 15  2  0  0  0  0
 14 16  1  0  0  0  0
 16 17  1  0  0  0  0
 17 41  1  0  0  0  0
 17 42  1  0  0  0  0
 17 43  1  0  0  0  0
 18 19  1  0  0  0  0
 18 44  1  0  0  0  0
 19 20  2  0  0  0  0
 19 21  1  0  0  0  0
 21 22  1  0  0  0  0
 21 27  1  0  0  0  0
 21 23  1  0  0  0  0
 23 24  1  0  0  0  0
 23 45  1  0  0  0  0
 23 46  1  0  0  0  0
 24 25  1  0  0  0  0
 24 47  1  0  0  0  0
 24 48  1  0  0  0  0
 25 26  1  0  0  0  0
 25 49  1  0  0  0  0
 25 50  1  0  0  0  0
 26 27  1  0  0  0  0
 26 51  1  0  0  0  0
 26 52  1  0  0  0  0
 27 28  1  0  0  0  0
 27 29  1  0  0  0  0
 29 30  2  0  0  0  0
 29 56  1  0  0  0  0
 31 53  1  0  0  0  0
 31 54  1  0  0  0  0
 31 55  1  0  0  0  0
M  CHG  1  56  -1
M  END
$$$$
ZINC02759660
  -OEChem-08230709463D

 56 58  0     1  0  0  0  0  0999 V2000
    9.0818    0.5623   -0.0776 C   0  0  0  0  0  0  0  0  0  0  0  0
    7.6338    0.9792   -0.0622 C   0  0  0  0  0  0  0  0  0  0  0  0
    6.8412    0.6770    1.0309 C   0  0  0  0  0  0  0  0  0  0  0  0
    5.5147    1.0562    1.0506 C   0  0  0  0  0  0  0  0  0  0  0  0
    4.9733    1.7453   -0.0340 C   0  0  0  0  0  0  0  0  0  0  0  0
    5.7753    2.0424   -1.1348 C   0  0  0  0  0  0  0  0  0  0  0  0
    7.1021    1.6622   -1.1411 C   0  0  0  0  0  0  0  0  0  0  0  0
    7.9719    1.9871   -2.3281 C   0  0  0  0  0  0  0  0  0  0  0  0
    3.5488    2.1549   -0.0192 C   0  0  0  0  0  0  0  0  0  0  0  0
    3.1840    3.4624   -0.0084 C   0  0  0  0  0  0  0  0  0  0  0  0
    1.4049    3.3912    0.0074 S   0  0  0  0  0  0  0  0  0  0  0  0
    1.1794    1.6749   -0.0002 C   0  0  0  0  0  0  0  0  0  0  0  0
    2.4761    1.1783   -0.0096 C   0  0  0  0  0  0  0  0  0  0  0  0
    2.7472   -0.2593   -0.0130 C   0  0  0  0  0  0  0  0  0  0  0  0
    2.8531   -0.8558   -1.0679 O   0  0  0  0  0  0  0  0  0  0  0  0
    2.8796   -0.9234    1.1537 O   0  0  0  0  0  0  0  0  0  0  0  0
    3.1478   -2.3482    1.0744 C   0  0  0  0  0  0  0  0  0  0  0  0
   -0.0111    0.9658    0.0074 N   0  0  0  0  0  0  0  0  0  0  0  0
   -1.1873    1.6238    0.0165 C   0  0  0  0  0  0  0  0  0  0  0  0
   -1.2037    2.8364    0.0232 O   0  0  0  0  0  0  0  0  0  0  0  0
   -2.4820    0.8526    0.0185 C   0  0  2  0  0  0  0  0  0  0  0  0
   -2.5271    0.2204    0.9052 H   0  0  0  0  0  0  0  0  0  0  0  0
   -2.5571   -0.0212   -1.2352 C   0  0  0  0  0  0  0  0  0  0  0  0
   -3.8716   -0.8041   -1.2332 C   0  0  0  0  0  0  0  0  0  0  0  0
   -5.0479    0.1742   -1.2223 C   0  0  0  0  0  0  0  0  0  0  0  0
   -4.9728    1.0480    0.0313 C   0  0  0  0  0  0  0  0  0  0  0  0
   -3.6583    1.8309    0.0294 C   0  0  1  0  0  0  0  0  0  0  0  0
   -3.6133    2.4632   -0.8574 H   0  0  0  0  0  0  0  0  0  0  0  0
   -3.5844    2.6916    1.2642 C   0  0  0  0  0  0  0  0  0  0  0  0
   -2.6834    2.5383    2.0544 O   0  0  0  0  0  0  0  0  0  0  0  0
    4.0710    4.6807   -0.0101 C   0  0  0  0  0  0  0  0  0  0  0  0
    9.1693   -0.4310   -0.5178 H   0  0  0  0  0  0  0  0  0  0  0  0
    9.6586    1.2737   -0.6686 H   0  0  0  0  0  0  0  0  0  0  0  0
    9.4651    0.5425    0.9427 H   0  0  0  0  0  0  0  0  0  0  0  0
    7.2616    0.1429    1.8702 H   0  0  0  0  0  0  0  0  0  0  0  0
    4.8969    0.8194    1.9042 H   0  0  0  0  0  0  0  0  0  0  0  0
    5.3603    2.5723   -1.9794 H   0  0  0  0  0  0  0  0  0  0  0  0
    7.9199    1.1726   -3.0505 H   0  0  0  0  0  0  0  0  0  0  0  0
    7.6219    2.9085   -2.7936 H   0  0  0  0  0  0  0  0  0  0  0  0
    9.0030    2.1153   -1.9988 H   0  0  0  0  0  0  0  0  0  0  0  0
    3.2314   -2.7588    2.0806 H   0  0  0  0  0  0  0  0  0  0  0  0
    2.3321   -2.8427    0.5468 H   0  0  0  0  0  0  0  0  0  0  0  0
    4.0812   -2.5128    0.5360 H   0  0  0  0  0  0  0  0  0  0  0  0
    0.0021   -0.0041    0.0020 H   0  0  0  0  0  0  0  0  0  0  0  0
   -2.5121    0.6110   -2.1220 H   0  0  0  0  0  0  0  0  0  0  0  0
   -1.7191   -0.7182   -1.2430 H   0  0  0  0  0  0  0  0  0  0  0  0
   -3.9166   -1.4364   -0.3465 H   0  0  0  0  0  0  0  0  0  0  0  0
   -3.9250   -1.4267   -2.1264 H   0  0  0  0  0  0  0  0  0  0  0  0
   -5.9843   -0.3836   -1.2209 H   0  0  0  0  0  0  0  0  0  0  0  0
   -5.0029    0.8064   -2.1091 H   0  0  0  0  0  0  0  0  0  0  0  0
   -5.0178    0.4158    0.9181 H   0  0  0  0  0  0  0  0  0  0  0  0
   -5.8108    1.7450    0.0391 H   0  0  0  0  0  0  0  0  0  0  0  0
    3.4541    5.5793    0.0008 H   0  0  0  0  0  0  0  0  0  0  0  0
    4.7086    4.6670    0.8738 H   0  0  0  0  0  0  0  0  0  0  0  0
    4.6918    4.6769   -0.9060 H   0  0  0  0  0  0  0  0  0  0  0  0
   -4.5196    3.6286    1.4861 O   0  5  0  0  0  0  0  0  0  0  0  0
  1  2  1  0  0  0  0
  1 32  1  0  0  0  0
  1 33  1  0  0  0  0
  1 34  1  0  0  0  0
  2  7  2  0  0  0  0
  2  3  1  0  0  0  0
  3  4  2  0  0  0  0
  3 35  1  0  0  0  0
  4  5  1  0  0  0  0
  4 36  1  0  0  0  0
  5  6  2  0  0  0  0
  5  9  1  0  0  0  0
  6  7  1  0  0  0  0
  6 37  1  0  0  0  0
  7  8  1  0  0  0  0
  8 38  1  0  0  0  0
  8 39  1  0  0  0  0
  8 40  1  0  0  0  0
  9 13  1  0  0  0  0
  9 10  2  0  0  0  0
 10 11  1  0  0  0  0
 10 31  1  0  0  0  0
 11 12  1  0  0  0  0
 12 13  2  0  0  0  0
 12 18  1  0  0  0  0
 13 14  1  0  0  0  0
 14 15  2  0  0  0  0
 14 16  1  0  0  0  0
 16 17  1  0  0  0  0
 17 41  1  0  0  0  0
 17 42  1  0  0  0  0
 17 43  1  0  0  0  0
 18 19  1  0  0  0  0
 18 44  1  0  0  0  0
 19 20  2  0  0  0  0
 19 21  1  0  0  0  0
 21 22  1  0  0  0  0
 21 27  1  0  0  0  0
 21 23  1  0  0  0  0
 23 24  1  0  0  0  0
 23 45  1  0  0  0  0
 23 46  1  0  0  0  0
 24 25  1  0  0  0  0
 24 47  1  0  0  0  0
 24 48  1  0  0  0  0
 25 26  1  0  0  0  0
 25 49  1  0  0  0  0
 25 50  1  0  0  0  0
 26 27  1  0  0  0  0
 26 51  1  0  0  0  0
 26 52  1  0  0  0  0
 27 28  1  0  0  0  0
 27 29  1  0  0  0  0
 29 30  2  0  0  0  0
 29 56  1  0  0  0  0
 31 53  1  0  0  0  0
 31 54  1  0  0  0  0
 31 55  1  0  0  0  0
M  CHG  1  56  -1
M  END
$$$$
ZINC02759661
  -OEChem-08230709463D

 56 58  0     1  0  0  0  0  0999 V2000
   12.3685    2.8458   -6.3116 C   0  0  0  0  0  0  0  0  0  0  0  0
   10.9659    2.7239   -5.7742 C   0  0  0  0  0  0  0  0  0  0  0  0
   10.7383    2.0458   -4.5898 C   0  0  0  0  0  0  0  0  0  0  0  0
    9.4562    1.9305   -4.0932 C   0  0  0  0  0  0  0  0  0  0  0  0
    8.3888    2.4991   -4.7873 C   0  0  0  0  0  0  0  0  0  0  0  0
    8.6236    3.1761   -5.9831 C   0  0  0  0  0  0  0  0  0  0  0  0
    9.9111    3.2899   -6.4672 C   0  0  0  0  0  0  0  0  0  0  0  0
   10.1674    4.0264   -7.7567 C   0  0  0  0  0  0  0  0  0  0  0  0
    7.0091    2.3788   -4.2590 C   0  0  0  0  0  0  0  0  0  0  0  0
    6.0510    1.6823   -4.9219 C   0  0  0  0  0  0  0  0  0  0  0  0
    4.6230    1.8484   -3.8713 S   0  0  0  0  0  0  0  0  0  0  0  0
    5.2986    2.8209   -2.6087 C   0  0  0  0  0  0  0  0  0  0  0  0
    6.6166    2.9992   -3.0077 C   0  0  0  0  0  0  0  0  0  0  0  0
    7.5630    3.7743   -2.2055 C   0  0  0  0  0  0  0  0  0  0  0  0
    8.2318    3.2225   -1.3521 O   0  0  0  0  0  0  0  0  0  0  0  0
    7.6942    5.1009   -2.4120 O   0  0  0  0  0  0  0  0  0  0  0  0
    8.6521    5.8061   -1.5793 C   0  0  0  0  0  0  0  0  0  0  0  0
    4.6746    3.3017   -1.4687 N   0  0  0  0  0  0  0  0  0  0  0  0
    3.3747    3.0252   -1.2445 C   0  0  0  0  0  0  0  0  0  0  0  0
    2.7511    2.3556   -2.0405 O   0  0  0  0  0  0  0  0  0  0  0  0
    2.6961    3.5480   -0.0046 C   0  0  1  0  0  0  0  0  0  0  0  0
    3.2039    3.1603    0.8785 H   0  0  0  0  0  0  0  0  0  0  0  0
    2.7554    5.0768    0.0030 C   0  0  0  0  0  0  0  0  0  0  0  0
    2.0665    5.6077    1.2618 C   0  0  0  0  0  0  0  0  0  0  0  0
    0.6054    5.1539    1.2733 C   0  0  0  0  0  0  0  0  0  0  0  0
    0.5460    3.6251    1.2656 C   0  0  0  0  0  0  0  0  0  0  0  0
    1.2350    3.0943    0.0069 C   0  0  2  0  0  0  0  0  0  0  0  0
    0.7272    3.4820   -0.8762 H   0  0  0  0  0  0  0  0  0  0  0  0
    1.1765    1.5884   -0.0006 C   0  0  0  0  0  0  0  0  0  0  0  0
    2.1986    0.9442   -0.0139 O   0  0  0  0  0  0  0  0  0  0  0  0
    6.1689    0.9420   -6.2292 C   0  0  0  0  0  0  0  0  0  0  0  0
   12.5817    2.0005   -6.9660 H   0  0  0  0  0  0  0  0  0  0  0  0
   12.4623    3.7741   -6.8750 H   0  0  0  0  0  0  0  0  0  0  0  0
   13.0761    2.8509   -5.4825 H   0  0  0  0  0  0  0  0  0  0  0  0
   11.5657    1.6055   -4.0533 H   0  0  0  0  0  0  0  0  0  0  0  0
    9.2796    1.4007   -3.1688 H   0  0  0  0  0  0  0  0  0  0  0  0
    7.8002    3.6146   -6.5273 H   0  0  0  0  0  0  0  0  0  0  0  0
   10.1042    3.3291   -8.5921 H   0  0  0  0  0  0  0  0  0  0  0  0
    9.4213    4.8112   -7.8813 H   0  0  0  0  0  0  0  0  0  0  0  0
   11.1619    4.4716   -7.7294 H   0  0  0  0  0  0  0  0  0  0  0  0
    8.3709    5.6992   -0.5317 H   0  0  0  0  0  0  0  0  0  0  0  0
    9.6461    5.3860   -1.7334 H   0  0  0  0  0  0  0  0  0  0  0  0
    8.6585    6.8625   -1.8478 H   0  0  0  0  0  0  0  0  0  0  0  0
    5.1734    3.8372   -0.8320 H   0  0  0  0  0  0  0  0  0  0  0  0
    2.2476    5.4646   -0.8801 H   0  0  0  0  0  0  0  0  0  0  0  0
    3.7964    5.4001   -0.0052 H   0  0  0  0  0  0  0  0  0  0  0  0
    2.1088    6.6968    1.2672 H   0  0  0  0  0  0  0  0  0  0  0  0
    2.5743    5.2199    2.1449 H   0  0  0  0  0  0  0  0  0  0  0  0
    0.0975    5.5417    0.3902 H   0  0  0  0  0  0  0  0  0  0  0  0
    0.1145    5.5321    2.1700 H   0  0  0  0  0  0  0  0  0  0  0  0
   -0.4949    3.3019    1.2738 H   0  0  0  0  0  0  0  0  0  0  0  0
    1.0538    3.2374    2.1487 H   0  0  0  0  0  0  0  0  0  0  0  0
    6.4662   -0.0890   -6.0374 H   0  0  0  0  0  0  0  0  0  0  0  0
    5.2068    0.9534   -6.7413 H   0  0  0  0  0  0  0  0  0  0  0  0
    6.9191    1.4261   -6.8545 H   0  0  0  0  0  0  0  0  0  0  0  0
   -0.0110    0.9628    0.0073 O   0  5  0  0  0  0  0  0  0  0  0  0
  1  2  1  0  0  0  0
  1 32  1  0  0  0  0
  1 33  1  0  0  0  0
  1 34  1  0  0  0  0
  2  7  2  0  0  0  0
  2  3  1  0  0  0  0
  3  4  2  0  0  0  0
  3 35  1  0  0  0  0
  4  5  1  0  0  0  0
  4 36  1  0  0  0  0
  5  6  2  0  0  0  0
  5  9  1  0  0  0  0
  6  7  1  0  0  0  0
  6 37  1  0  0  0  0
  7  8  1  0  0  0  0
  8 38  1  0  0  0  0
  8 39  1  0  0  0  0
  8 40  1  0  0  0  0
  9 13  1  0  0  0  0
  9 10  2  0  0  0  0
 10 11  1  0  0  0  0
 10 31  1  0  0  0  0
 11 12  1  0  0  0  0
 12 13  2  0  0  0  0
 12 18  1  0  0  0  0
 13 14  1  0  0  0  0
 14 15  2  0  0  0  0
 14 16  1  0  0  0  0
 16 17  1  0  0  0  0
 17 41  1  0  0  0  0
 17 42  1  0  0  0  0
 17 43  1  0  0  0  0
 18 19  1  0  0  0  0
 18 44  1  0  0  0  0
 19 20  2  0  0  0  0
 19 21  1  0  0  0  0
 21 22  1  0  0  0  0
 21 27  1  0  0  0  0
 21 23  1  0  0  0  0
 23 24  1  0  0  0  0
 23 45  1  0  0  0  0
 23 46  1  0  0  0  0
 24 25  1  0  0  0  0
 24 47  1  0  0  0  0
 24 48  1  0  0  0  0
 25 26  1  0  0  0  0
 25 49  1  0  0  0  0
 25 50  1  0  0  0  0
 26 27  1  0  0  0  0
 26 51  1  0  0  0  0
 26 52  1  0  0  0  0
 27 28  1  0  0  0  0
 27 29  1  0  0  0  0
 29 30  2  0  0  0  0
 29 56  1  0  0  0  0
 31 53  1  0  0  0  0
 31 54  1  0  0  0  0
 31 55  1  0  0  0  0
M  CHG  1  56  -1
M  END
$$$$
ZINC02759662
  -OEChem-08230709463D

 56 58  0     1  0  0  0  0  0999 V2000
    7.2013   -7.5966    6.1046 C   0  0  0  0  0  0  0  0  0  0  0  0
    6.3288   -6.4788    5.5945 C   0  0  0  0  0  0  0  0  0  0  0  0
    6.8381   -5.1959    5.4987 C   0  0  0  0  0  0  0  0  0  0  0  0
    6.0460   -4.1697    5.0264 C   0  0  0  0  0  0  0  0  0  0  0  0
    4.7261   -4.4252    4.6563 C   0  0  0  0  0  0  0  0  0  0  0  0
    4.2184   -5.7198    4.7551 C   0  0  0  0  0  0  0  0  0  0  0  0
    5.0220   -6.7394    5.2235 C   0  0  0  0  0  0  0  0  0  0  0  0
    4.4746   -8.1393    5.3313 C   0  0  0  0  0  0  0  0  0  0  0  0
    3.8680   -3.3258    4.1541 C   0  0  0  0  0  0  0  0  0  0  0  0
    2.7690   -2.9124    4.8352 C   0  0  0  0  0  0  0  0  0  0  0  0
    2.1239   -1.6028    3.8159 S   0  0  0  0  0  0  0  0  0  0  0  0
    3.2905   -1.6238    2.5372 C   0  0  0  0  0  0  0  0  0  0  0  0
    4.1587   -2.6421    2.9080 C   0  0  0  0  0  0  0  0  0  0  0  0
    5.3121   -3.0050    2.0846 C   0  0  0  0  0  0  0  0  0  0  0  0
    6.3845   -2.4602    2.2662 O   0  0  0  0  0  0  0  0  0  0  0  0
    5.1864   -3.9437    1.1240 O   0  0  0  0  0  0  0  0  0  0  0  0
    6.3725   -4.2532    0.3456 C   0  0  0  0  0  0  0  0  0  0  0  0
    3.3423   -0.8201    1.4096 N   0  0  0  0  0  0  0  0  0  0  0  0
    2.4003    0.1229    1.2103 C   0  0  0  0  0  0  0  0  0  0  0  0
    1.5073    0.2682    2.0180 O   0  0  0  0  0  0  0  0  0  0  0  0
    2.4566    0.9969   -0.0160 C   0  0  2  0  0  0  0  0  0  0  0  0
    2.3989    0.3743   -0.9089 H   0  0  0  0  0  0  0  0  0  0  0  0
    3.7711    1.7799   -0.0244 C   0  0  0  0  0  0  0  0  0  0  0  0
    3.8521    2.6538    1.2288 C   0  0  0  0  0  0  0  0  0  0  0  0
    2.6759    3.6321    1.2453 C   0  0  0  0  0  0  0  0  0  0  0  0
    1.3614    2.8492    1.2537 C   0  0  0  0  0  0  0  0  0  0  0  0
    1.2804    1.9752    0.0004 C   0  0  2  0  0  0  0  0  0  0  0  0
    1.3211    2.6074   -0.8866 H   0  0  0  0  0  0  0  0  0  0  0  0
   -0.0143    1.2041    0.0087 C   0  0  0  0  0  0  0  0  0  0  0  0
    0.0021   -0.0041    0.0020 O   0  0  0  0  0  0  0  0  0  0  0  0
    2.2257   -3.4358    6.1398 C   0  0  0  0  0  0  0  0  0  0  0  0
    7.7230   -8.0611    5.2679 H   0  0  0  0  0  0  0  0  0  0  0  0
    7.9296   -7.1961    6.8098 H   0  0  0  0  0  0  0  0  0  0  0  0
    6.5823   -8.3411    6.6053 H   0  0  0  0  0  0  0  0  0  0  0  0
    7.8593   -4.9984    5.7895 H   0  0  0  0  0  0  0  0  0  0  0  0
    6.4461   -3.1697    4.9475 H   0  0  0  0  0  0  0  0  0  0  0  0
    3.1981   -5.9243    4.4660 H   0  0  0  0  0  0  0  0  0  0  0  0
    4.6537   -8.6724    4.3976 H   0  0  0  0  0  0  0  0  0  0  0  0
    4.9712   -8.6616    6.1490 H   0  0  0  0  0  0  0  0  0  0  0  0
    3.4029   -8.0964    5.5253 H   0  0  0  0  0  0  0  0  0  0  0  0
    6.1341   -5.0216   -0.3898 H   0  0  0  0  0  0  0  0  0  0  0  0
    6.7158   -3.3543   -0.1664 H   0  0  0  0  0  0  0  0  0  0  0  0
    7.1578   -4.6160    1.0088 H   0  0  0  0  0  0  0  0  0  0  0  0
    4.0565   -0.9363    0.7636 H   0  0  0  0  0  0  0  0  0  0  0  0
    4.6091    1.0829   -0.0361 H   0  0  0  0  0  0  0  0  0  0  0  0
    3.8118    2.4121   -0.9114 H   0  0  0  0  0  0  0  0  0  0  0  0
    3.8114    2.0217    2.1159 H   0  0  0  0  0  0  0  0  0  0  0  0
    4.7886    3.2116    1.2229 H   0  0  0  0  0  0  0  0  0  0  0  0
    2.7336    4.2547    2.1382 H   0  0  0  0  0  0  0  0  0  0  0  0
    2.7166    4.2643    0.3583 H   0  0  0  0  0  0  0  0  0  0  0  0
    0.5235    3.5461    1.2654 H   0  0  0  0  0  0  0  0  0  0  0  0
    1.3207    2.2170    2.1407 H   0  0  0  0  0  0  0  0  0  0  0  0
    1.3266   -2.8809    6.4077 H   0  0  0  0  0  0  0  0  0  0  0  0
    1.9821   -4.4930    6.0339 H   0  0  0  0  0  0  0  0  0  0  0  0
    2.9754   -3.3122    6.9213 H   0  0  0  0  0  0  0  0  0  0  0  0
   -1.1857    1.8593    0.0178 O   0  5  0  0  0  0  0  0  0  0  0  0
  1  2  1  0  0  0  0
  1 32  1  0  0  0  0
  1 33  1  0  0  0  0
  1 34  1  0  0  0  0
  2  7  2  0  0  0  0
  2  3  1  0  0  0  0
  3  4  2  0  0  0  0
  3 35  1  0  0  0  0
  4  5  1  0  0  0  0
  4 36  1  0  0  0  0
  5  6  2  0  0  0  0
  5  9  1  0  0  0  0
  6  7  1  0  0  0  0
  6 37  1  0  0  0  0
  7  8  1  0  0  0  0
  8 38  1  0  0  0  0
  8 39  1  0  0  0  0
  8 40  1  0  0  0  0
  9 13  1  0  0  0  0
  9 10  2  0  0  0  0
 10 11  1  0  0  0  0
 10 31  1  0  0  0  0
 11 12  1  0  0  0  0
 12 13  2  0  0  0  0
 12 18  1  0  0  0  0
 13 14  1  0  0  0  0
 14 15  2  0  0  0  0
 14 16  1  0  0  0  0
 16 17  1  0  0  0  0
 17 41  1  0  0  0  0
 17 42  1  0  0  0  0
 17 43  1  0  0  0  0
 18 19  1  0  0  0  0
 18 44  1  0  0  0  0
 19 20  2  0  0  0  0
 19 21  1  0  0  0  0
 21 22  1  0  0  0  0
 21 27  1  0  0  0  0
 21 23  1  0  0  0  0
 23 24  1  0  0  0  0
 23 45  1  0  0  0  0
 23 46  1  0  0  0  0
 24 25  1  0  0  0  0
 24 47  1  0  0  0  0
 24 48  1  0  0  0  0
 25 26  1  0  0  0  0
 25 49  1  0  0  0  0
 25 50  1  0  0  0  0
 26 27  1  0  0  0  0
 26 51  1  0  0  0  0
 26 52  1  0  0  0  0
 27 28  1  0  0  0  0
 27 29  1  0  0  0  0
 29 30  2  0  0  0  0
 29 56  1  0  0  0  0
 31 53  1  0  0  0  0
 31 54  1  0  0  0  0
 31 55  1  0  0  0  0
M  CHG  1  56  -1
M  END
$$$$
ZINC02760661
  -OEChem-08230709463D

 57 59  0     1  0  0  0  0  0999 V2000
   -7.5599    0.2375   -0.8785 C   0  0  0  0  0  0  0  0  0  0  0  0
   -6.5132   -0.5230   -0.0618 C   0  0  0  0  0  0  0  0  0  0  0  0
   -6.5440   -2.0037   -0.4456 C   0  0  0  0  0  0  0  0  0  0  0  0
   -6.8241   -0.3760    1.4290 C   0  0  0  0  0  0  0  0  0  0  0  0
   -5.1246    0.0503   -0.3521 C   0  0  2  0  0  0  0  0  0  0  0  0
   -4.8993   -0.0579   -1.4131 H   0  0  0  0  0  0  0  0  0  0  0  0
   -4.0768   -0.6980    0.4769 C   0  0  0  0  0  0  0  0  0  0  0  0
   -2.6715   -0.3073    0.0155 C   0  0  0  0  0  0  0  0  0  0  0  0
   -2.5591    1.2121    0.0152 C   0  0  0  0  0  0  0  0  0  0  0  0
   -1.2990    1.9307    0.0187 C   0  0  0  0  0  0  0  0  0  0  0  0
   -1.3437    3.3074    0.0259 C   0  0  0  0  0  0  0  0  0  0  0  0
   -3.0424    3.6490    0.0350 S   0  0  0  0  0  0  0  0  0  0  0  0
   -3.6645    1.9917    0.0292 C   0  0  0  0  0  0  0  0  0  0  0  0
   -5.0908    1.5368    0.0323 C   0  0  0  0  0  0  0  0  0  0  0  0
   -0.0144    1.2122    0.0087 C   0  0  0  0  0  0  0  0  0  0  0  0
    0.0021   -0.0041    0.0020 O   0  0  0  0  0  0  0  0  0  0  0  0
    1.1435    1.9019    0.0014 N   0  0  0  0  0  0  0  0  0  0  0  0
    2.3661    1.2180   -0.0140 N   0  0  0  0  0  0  0  0  0  0  0  0
    3.5240    1.9077   -0.0213 C   0  0  0  0  0  0  0  0  0  0  0  0
    3.5076    3.1203   -0.0147 O   0  0  0  0  0  0  0  0  0  0  0  0
    4.8391    1.1720   -0.0379 C   0  0  2  0  0  0  0  0  0  0  0  0
    4.8969    0.5510   -0.9318 H   0  0  0  0  0  0  0  0  0  0  0  0
    4.9440    0.2869    1.2057 C   0  0  0  0  0  0  0  0  0  0  0  0
    6.2793   -0.4600    1.1889 C   0  0  0  0  0  0  0  0  0  0  0  0
    7.4285    0.5500    1.1834 C   0  0  0  0  0  0  0  0  0  0  0  0
    7.3236    1.4351   -0.0602 C   0  0  0  0  0  0  0  0  0  0  0  0
    5.9884    2.1820   -0.0434 C   0  0  1  0  0  0  0  0  0  0  0  0
    5.9307    2.8030    0.8505 H   0  0  0  0  0  0  0  0  0  0  0  0
    5.8851    3.0538   -1.2683 C   0  0  0  0  0  0  0  0  0  0  0  0
    4.9847    2.8847   -2.0560 O   0  0  0  0  0  0  0  0  0  0  0  0
   -7.3384    0.1328   -1.9406 H   0  0  0  0  0  0  0  0  0  0  0  0
   -8.5491   -0.1709   -0.6716 H   0  0  0  0  0  0  0  0  0  0  0  0
   -7.5379    1.2924   -0.6050 H   0  0  0  0  0  0  0  0  0  0  0  0
   -5.7984   -2.5455    0.1362 H   0  0  0  0  0  0  0  0  0  0  0  0
   -7.5333   -2.4121   -0.2388 H   0  0  0  0  0  0  0  0  0  0  0  0
   -6.3225   -2.1085   -1.5077 H   0  0  0  0  0  0  0  0  0  0  0  0
   -6.8021    0.6789    1.7025 H   0  0  0  0  0  0  0  0  0  0  0  0
   -7.8133   -0.7844    1.6359 H   0  0  0  0  0  0  0  0  0  0  0  0
   -6.0784   -0.9178    2.0109 H   0  0  0  0  0  0  0  0  0  0  0  0
   -4.1969   -0.4410    1.5293 H   0  0  0  0  0  0  0  0  0  0  0  0
   -4.2131   -1.7718    0.3486 H   0  0  0  0  0  0  0  0  0  0  0  0
   -1.9326   -0.7308    0.6958 H   0  0  0  0  0  0  0  0  0  0  0  0
   -2.4995   -0.6852   -0.9923 H   0  0  0  0  0  0  0  0  0  0  0  0
   -0.5193    4.0052    0.0253 H   0  0  0  0  0  0  0  0  0  0  0  0
   -5.5162    1.6686    1.0271 H   0  0  0  0  0  0  0  0  0  0  0  0
   -5.6629    2.1171   -0.6916 H   0  0  0  0  0  0  0  0  0  0  0  0
    1.1303    2.8718    0.0067 H   0  0  0  0  0  0  0  0  0  0  0  0
    2.3793    0.2481   -0.0193 H   0  0  0  0  0  0  0  0  0  0  0  0
    4.8863    0.9079    2.0996 H   0  0  0  0  0  0  0  0  0  0  0  0
    4.1253   -0.4326    1.2097 H   0  0  0  0  0  0  0  0  0  0  0  0
    6.3370   -1.0810    0.2950 H   0  0  0  0  0  0  0  0  0  0  0  0
    6.3540   -1.0906    2.0749 H   0  0  0  0  0  0  0  0  0  0  0  0
    8.3798    0.0179    1.1715 H   0  0  0  0  0  0  0  0  0  0  0  0
    7.3708    1.1710    2.0773 H   0  0  0  0  0  0  0  0  0  0  0  0
    7.3814    0.8141   -0.9541 H   0  0  0  0  0  0  0  0  0  0  0  0
    8.1424    2.1546   -0.0641 H   0  0  0  0  0  0  0  0  0  0  0  0
    6.7934    4.0182   -1.4842 O   0  5  0  0  0  0  0  0  0  0  0  0
  1  2  1  0  0  0  0
  1 31  1  0  0  0  0
  1 32  1  0  0  0  0
  1 33  1  0  0  0  0
  2  3  1  0  0  0  0
  2  4  1  0  0  0  0
  2  5  1  0  0  0  0
  3 34  1  0  0  0  0
  3 35  1  0  0  0  0
  3 36  1  0  0  0  0
  4 37  1  0  0  0  0
  4 38  1  0  0  0  0
  4 39  1  0  0  0  0
  5  6  1  0  0  0  0
  5 14  1  0  0  0  0
  5  7  1  0  0  0  0
  7  8  1  0  0  0  0
  7 40  1  0  0  0  0
  7 41  1  0  0  0  0
  8  9  1  0  0  0  0
  8 42  1  0  0  0  0
  8 43  1  0  0  0  0
  9 13  2  0  0  0  0
  9 10  1  0  0  0  0
 10 11  2  0  0  0  0
 10 15  1  0  0  0  0
 11 12  1  0  0  0  0
 11 44  1  0  0  0  0
 12 13  1  0  0  0  0
 13 14  1  0  0  0  0
 14 45  1  0  0  0  0
 14 46  1  0  0  0  0
 15 16  2  0  0  0  0
 15 17  1  0  0  0  0
 17 18  1  0  0  0  0
 17 47  1  0  0  0  0
 18 19  1  0  0  0  0
 18 48  1  0  0  0  0
 19 20  2  0  0  0  0
 19 21  1  0  0  0  0
 21 22  1  0  0  0  0
 21 27  1  0  0  0  0
 21 23  1  0  0  0  0
 23 24  1  0  0  0  0
 23 49  1  0  0  0  0
 23 50  1  0  0  0  0
 24 25  1  0  0  0  0
 24 51  1  0  0  0  0
 24 52  1  0  0  0  0
 25 26  1  0  0  0  0
 25 53  1  0  0  0  0
 25 54  1  0  0  0  0
 26 27  1  0  0  0  0
 26 55  1  0  0  0  0
 26 56  1  0  0  0  0
 27 28  1  0  0  0  0
 27 29  1  0  0  0  0
 29 30  2  0  0  0  0
 29 57  1  0  0  0  0
M  CHG  1  57  -1
M  END
$$$$
ZINC02760882
  -OEChem-08230709463D

 50 51  0     1  0  0  0  0  0999 V2000
   -1.2529    1.1783   -0.1262 C   0  0  0  0  0  0  0  0  0  0  0  0
   -0.5676   -0.1623   -0.0635 C   0  0  0  0  0  0  0  0  0  0  0  0
   -0.5283   -0.8608    1.1291 C   0  0  0  0  0  0  0  0  0  0  0  0
    0.0969   -2.0890    1.1945 C   0  0  0  0  0  0  0  0  0  0  0  0
    0.6933   -2.6304    0.0535 C   0  0  0  0  0  0  0  0  0  0  0  0
    0.6539   -1.9252   -1.1496 C   0  0  0  0  0  0  0  0  0  0  0  0
    0.0178   -0.6947   -1.2057 C   0  0  0  0  0  0  0  0  0  0  0  0
   -0.0302    0.0137   -2.4118 N   0  0  0  0  0  0  0  0  0  0  0  0
    0.0656   -0.6442   -3.5841 C   0  0  0  0  0  0  0  0  0  0  0  0
    0.0908   -1.8567   -3.5987 O   0  0  0  0  0  0  0  0  0  0  0  0
    0.1415    0.1267   -4.8768 C   0  0  1  0  0  0  0  0  0  0  0  0
   -0.7111    0.8021   -4.9476 H   0  0  0  0  0  0  0  0  0  0  0  0
    1.4386    0.9372   -4.9119 C   0  0  0  0  0  0  0  0  0  0  0  0
    0.1196   -0.7849   -5.9770 O   0  0  0  0  0  0  0  0  0  0  0  0
   -0.3301   -0.3056   -7.1666 C   0  0  0  0  0  0  0  0  0  0  0  0
   -0.8404    0.9818   -7.2487 C   0  0  0  0  0  0  0  0  0  0  0  0
   -1.2919    1.4685   -8.4602 C   0  0  0  0  0  0  0  0  0  0  0  0
   -1.2453    0.6701   -9.5880 C   0  0  0  0  0  0  0  0  0  0  0  0
   -0.7425   -0.6154   -9.5076 C   0  0  0  0  0  0  0  0  0  0  0  0
   -0.2848   -1.1050   -8.2996 C   0  0  0  0  0  0  0  0  0  0  0  0
   -1.7439    1.2016  -10.9071 C   0  0  0  0  0  0  0  0  0  0  0  0
   -2.8910    0.3230  -11.4102 C   0  0  0  0  0  0  0  0  0  0  0  0
   -2.2431    2.6361  -10.7230 C   0  0  0  0  0  0  0  0  0  0  0  0
   -0.6038    1.1853  -11.9272 C   0  0  0  0  0  0  0  0  0  0  0  0
    1.3639   -3.9451    0.1205 C   0  0  0  0  0  0  0  0  0  0  0  0
    1.8819   -4.4140   -0.8731 O   0  0  0  0  0  0  0  0  0  0  0  0
   -0.5336    1.9651    0.1011 H   0  0  0  0  0  0  0  0  0  0  0  0
   -1.6570    1.3333   -1.1266 H   0  0  0  0  0  0  0  0  0  0  0  0
   -2.0639    1.2062    0.6016 H   0  0  0  0  0  0  0  0  0  0  0  0
   -0.9889   -0.4437    2.0124 H   0  0  0  0  0  0  0  0  0  0  0  0
    0.1248   -2.6318    2.1278 H   0  0  0  0  0  0  0  0  0  0  0  0
    1.1132   -2.3386   -2.0353 H   0  0  0  0  0  0  0  0  0  0  0  0
   -0.1325    0.9783   -2.4039 H   0  0  0  0  0  0  0  0  0  0  0  0
    1.4935    1.4948   -5.8468 H   0  0  0  0  0  0  0  0  0  0  0  0
    1.4554    1.6326   -4.0726 H   0  0  0  0  0  0  0  0  0  0  0  0
    2.2912    0.2618   -4.8411 H   0  0  0  0  0  0  0  0  0  0  0  0
   -0.8808    1.6044   -6.3672 H   0  0  0  0  0  0  0  0  0  0  0  0
   -1.6852    2.4723   -8.5256 H   0  0  0  0  0  0  0  0  0  0  0  0
   -0.7071   -1.2371  -10.3899 H   0  0  0  0  0  0  0  0  0  0  0  0
    0.1082   -2.1090   -8.2373 H   0  0  0  0  0  0  0  0  0  0  0  0
   -3.7033    0.3346  -10.6834 H   0  0  0  0  0  0  0  0  0  0  0  0
   -3.2516    0.7074  -12.3643 H   0  0  0  0  0  0  0  0  0  0  0  0
   -2.5353   -0.6990  -11.5413 H   0  0  0  0  0  0  0  0  0  0  0  0
   -1.4259    3.2620  -10.3646 H   0  0  0  0  0  0  0  0  0  0  0  0
   -2.6038    3.0205  -11.6771 H   0  0  0  0  0  0  0  0  0  0  0  0
   -3.0554    2.6477   -9.9962 H   0  0  0  0  0  0  0  0  0  0  0  0
   -0.2481    0.1634  -12.0584 H   0  0  0  0  0  0  0  0  0  0  0  0
   -0.9644    1.5698  -12.8813 H   0  0  0  0  0  0  0  0  0  0  0  0
    0.2134    1.8113  -11.5688 H   0  0  0  0  0  0  0  0  0  0  0  0
    1.4009   -4.6239    1.2835 O   0  5  0  0  0  0  0  0  0  0  0  0
  1  2  1  0  0  0  0
  1 27  1  0  0  0  0
  1 28  1  0  0  0  0
  1 29  1  0  0  0  0
  2  7  2  0  0  0  0
  2  3  1  0  0  0  0
  3  4  2  0  0  0  0
  3 30  1  0  0  0  0
  4  5  1  0  0  0  0
  4 31  1  0  0  0  0
  5  6  2  0  0  0  0
  5 25  1  0  0  0  0
  6  7  1  0  0  0  0
  6 32  1  0  0  0  0
  7  8  1  0  0  0  0
  8  9  1  0  0  0  0
  8 33  1  0  0  0  0
  9 10  2  0  0  0  0
  9 11  1  0  0  0  0
 11 12  1  0  0  0  0
 11 13  1  0  0  0  0
 11 14  1  0  0  0  0
 13 34  1  0  0  0  0
 13 35  1  0  0  0  0
 13 36  1  0  0  0  0
 14 15  1  0  0  0  0
 15 20  2  0  0  0  0
 15 16  1  0  0  0  0
 16 17  2  0  0  0  0
 16 37  1  0  0  0  0
 17 18  1  0  0  0  0
 17 38  1  0  0  0  0
 18 19  2  0  0  0  0
 18 21  1  0  0  0  0
 19 20  1  0  0  0  0
 19 39  1  0  0  0  0
 20 40  1  0  0  0  0
 21 22  1  0  0  0  0
 21 23  1  0  0  0  0
 21 24  1  0  0  0  0
 22 41  1  0  0  0  0
 22 42  1  0  0  0  0
 22 43  1  0  0  0  0
 23 44  1  0  0  0  0
 23 45  1  0  0  0  0
 23 46  1  0  0  0  0
 24 47  1  0  0  0  0
 24 48  1  0  0  0  0
 24 49  1  0  0  0  0
 25 26  2  0  0  0  0
 25 50  1  0  0  0  0
M  CHG  1  50  -1
M  END
$$$$
ZINC02760883
  -OEChem-08230709463D

 50 51  0     1  0  0  0  0  0999 V2000
    0.1114    0.3983   -1.2500 C   0  0  0  0  0  0  0  0  0  0  0  0
    0.0399    1.7279   -0.5443 C   0  0  0  0  0  0  0  0  0  0  0  0
   -1.1573    2.4179   -0.4946 C   0  0  0  0  0  0  0  0  0  0  0  0
   -1.2320    3.6334    0.1537 C   0  0  0  0  0  0  0  0  0  0  0  0
   -0.0933    4.1757    0.7538 C   0  0  0  0  0  0  0  0  0  0  0  0
    1.1157    3.4818    0.6989 C   0  0  0  0  0  0  0  0  0  0  0  0
    1.1786    2.2589    0.0491 C   0  0  0  0  0  0  0  0  0  0  0  0
    2.3891    1.5587   -0.0088 N   0  0  0  0  0  0  0  0  0  0  0  0
    3.5527    2.2316   -0.1076 C   0  0  0  0  0  0  0  0  0  0  0  0
    3.5577    3.4438   -0.0667 O   0  0  0  0  0  0  0  0  0  0  0  0
    4.8476    1.4778   -0.2690 C   0  0  2  0  0  0  0  0  0  0  0  0
    4.8099    0.8817   -1.1808 H   0  0  0  0  0  0  0  0  0  0  0  0
    5.0547    0.5562    0.9346 C   0  0  0  0  0  0  0  0  0  0  0  0
    5.9317    2.4053   -0.3508 O   0  0  0  0  0  0  0  0  0  0  0  0
    6.9759    2.0648   -1.1511 C   0  0  0  0  0  0  0  0  0  0  0  0
    7.9997    2.9723   -1.3812 C   0  0  0  0  0  0  0  0  0  0  0  0
    9.0632    2.6215   -2.1902 C   0  0  0  0  0  0  0  0  0  0  0  0
    9.1017    1.3717   -2.7802 C   0  0  0  0  0  0  0  0  0  0  0  0
    8.0797    0.4675   -2.5570 C   0  0  0  0  0  0  0  0  0  0  0  0
    7.0171    0.8112   -1.7439 C   0  0  0  0  0  0  0  0  0  0  0  0
   10.2596    0.9941   -3.6677 C   0  0  0  0  0  0  0  0  0  0  0  0
    9.7421    0.6666   -5.0697 C   0  0  0  0  0  0  0  0  0  0  0  0
   11.2434    2.1631   -3.7474 C   0  0  0  0  0  0  0  0  0  0  0  0
   10.9691   -0.2308   -3.0869 C   0  0  0  0  0  0  0  0  0  0  0  0
   -0.1690    5.4794    1.4448 C   0  0  0  0  0  0  0  0  0  0  0  0
    0.8225    5.9488    1.9663 O   0  0  0  0  0  0  0  0  0  0  0  0
   -0.1059   -0.4012   -0.5416 H   0  0  0  0  0  0  0  0  0  0  0  0
   -0.6196    0.3762   -2.0583 H   0  0  0  0  0  0  0  0  0  0  0  0
    1.1114    0.2581   -1.6605 H   0  0  0  0  0  0  0  0  0  0  0  0
   -2.0378    2.0021   -0.9616 H   0  0  0  0  0  0  0  0  0  0  0  0
   -2.1699    4.1674    0.1940 H   0  0  0  0  0  0  0  0  0  0  0  0
    1.9997    3.8961    1.1607 H   0  0  0  0  0  0  0  0  0  0  0  0
    2.3906    0.5892    0.0221 H   0  0  0  0  0  0  0  0  0  0  0  0
    5.0924    1.1522    1.8464 H   0  0  0  0  0  0  0  0  0  0  0  0
    4.2278   -0.1513    0.9970 H   0  0  0  0  0  0  0  0  0  0  0  0
    5.9913    0.0110    0.8179 H   0  0  0  0  0  0  0  0  0  0  0  0
    7.9677    3.9504   -0.9245 H   0  0  0  0  0  0  0  0  0  0  0  0
    9.8630    3.3258   -2.3655 H   0  0  0  0  0  0  0  0  0  0  0  0
    8.1124   -0.5084   -3.0184 H   0  0  0  0  0  0  0  0  0  0  0  0
    6.2193    0.1045   -1.5696 H   0  0  0  0  0  0  0  0  0  0  0  0
    9.2367    1.5392   -5.4835 H   0  0  0  0  0  0  0  0  0  0  0  0
   10.5796    0.3935   -5.7116 H   0  0  0  0  0  0  0  0  0  0  0  0
    9.0412   -0.1663   -5.0129 H   0  0  0  0  0  0  0  0  0  0  0  0
   11.6122    2.3965   -2.7485 H   0  0  0  0  0  0  0  0  0  0  0  0
   12.0810    1.8900   -4.3893 H   0  0  0  0  0  0  0  0  0  0  0  0
   10.7380    3.0358   -4.1611 H   0  0  0  0  0  0  0  0  0  0  0  0
   10.2682   -1.0636   -3.0301 H   0  0  0  0  0  0  0  0  0  0  0  0
   11.8066   -0.5039   -3.7287 H   0  0  0  0  0  0  0  0  0  0  0  0
   11.3378    0.0025   -2.0880 H   0  0  0  0  0  0  0  0  0  0  0  0
   -1.3377    6.1474    1.4964 O   0  5  0  0  0  0  0  0  0  0  0  0
  1  2  1  0  0  0  0
  1 27  1  0  0  0  0
  1 28  1  0  0  0  0
  1 29  1  0  0  0  0
  2  7  2  0  0  0  0
  2  3  1  0  0  0  0
  3  4  2  0  0  0  0
  3 30  1  0  0  0  0
  4  5  1  0  0  0  0
  4 31  1  0  0  0  0
  5  6  2  0  0  0  0
  5 25  1  0  0  0  0
  6  7  1  0  0  0  0
  6 32  1  0  0  0  0
  7  8  1  0  0  0  0
  8  9  1  0  0  0  0
  8 33  1  0  0  0  0
  9 10  2  0  0  0  0
  9 11  1  0  0  0  0
 11 12  1  0  0  0  0
 11 13  1  0  0  0  0
 11 14  1  0  0  0  0
 13 34  1  0  0  0  0
 13 35  1  0  0  0  0
 13 36  1  0  0  0  0
 14 15  1  0  0  0  0
 15 20  2  0  0  0  0
 15 16  1  0  0  0  0
 16 17  2  0  0  0  0
 16 37  1  0  0  0  0
 17 18  1  0  0  0  0
 17 38  1  0  0  0  0
 18 19  2  0  0  0  0
 18 21  1  0  0  0  0
 19 20  1  0  0  0  0
 19 39  1  0  0  0  0
 20 40  1  0  0  0  0
 21 22  1  0  0  0  0
 21 23  1  0  0  0  0
 21 24  1  0  0  0  0
 22 41  1  0  0  0  0
 22 42  1  0  0  0  0
 22 43  1  0  0  0  0
 23 44  1  0  0  0  0
 23 45  1  0  0  0  0
 23 46  1  0  0  0  0
 24 47  1  0  0  0  0
 24 48  1  0  0  0  0
 24 49  1  0  0  0  0
 25 26  2  0  0  0  0
 25 50  1  0  0  0  0
M  CHG  1  50  -1
M  END
$$$$
ZINC02761551
  -OEChem-08230709463D

 53 55  0     1  0  0  0  0  0999 V2000
    3.2650   -2.9250    2.4861 C   0  0  0  0  0  0  0  0  0  0  0  0
    3.1477   -2.3484    1.0737 C   0  0  0  0  0  0  0  0  0  0  0  0
    2.8795   -0.9236    1.1533 O   0  0  0  0  0  0  0  0  0  0  0  0
    2.7472   -0.2593   -0.0132 C   0  0  0  0  0  0  0  0  0  0  0  0
    2.8532   -0.8556   -1.0683 O   0  0  0  0  0  0  0  0  0  0  0  0
    2.4761    1.1783   -0.0096 C   0  0  0  0  0  0  0  0  0  0  0  0
    3.5488    2.1549   -0.0197 C   0  0  0  0  0  0  0  0  0  0  0  0
    3.1840    3.4624   -0.0089 C   0  0  0  0  0  0  0  0  0  0  0  0
    1.4049    3.3912    0.0074 S   0  0  0  0  0  0  0  0  0  0  0  0
    1.1794    1.6749   -0.0002 C   0  0  0  0  0  0  0  0  0  0  0  0
   -0.0111    0.9658    0.0074 N   0  0  0  0  0  0  0  0  0  0  0  0
   -1.1873    1.6238    0.0165 C   0  0  0  0  0  0  0  0  0  0  0  0
   -1.2037    2.8364    0.0232 O   0  0  0  0  0  0  0  0  0  0  0  0
   -2.4820    0.8526    0.0185 C   0  0  1  0  0  0  0  0  0  0  0  0
   -2.5355    0.2301   -0.8747 H   0  0  0  0  0  0  0  0  0  0  0  0
   -2.5452   -0.0348    1.2632 C   0  0  0  0  0  0  0  0  0  0  0  0
   -2.4702    0.8390    2.5169 C   0  0  0  0  0  0  0  0  0  0  0  0
   -3.6465    1.8174    2.5278 C   0  0  0  0  0  0  0  0  0  0  0  0
   -3.5833    2.7048    1.2830 C   0  0  0  0  0  0  0  0  0  0  0  0
   -3.6583    1.8309    0.0294 C   0  0  1  0  0  0  0  0  0  0  0  0
   -4.5948    1.2732    0.0308 H   0  0  0  0  0  0  0  0  0  0  0  0
   -3.5961    2.7050   -1.1967 C   0  0  0  0  0  0  0  0  0  0  0  0
   -2.7026    2.5603   -1.9971 O   0  0  0  0  0  0  0  0  0  0  0  0
    4.0710    4.6807   -0.0103 C   0  0  0  0  0  0  0  0  0  0  0  0
    4.9732    1.7453   -0.0359 C   0  0  0  0  0  0  0  0  0  0  0  0
    5.4930    1.0636   -1.1355 C   0  0  0  0  0  0  0  0  0  0  0  0
    6.8213    0.6899   -1.1473 C   0  0  0  0  0  0  0  0  0  0  0  0
    7.6340    0.9801   -0.0660 C   0  0  0  0  0  0  0  0  0  0  0  0
    7.1225    1.6512    1.0302 C   0  0  0  0  0  0  0  0  0  0  0  0
    5.7971    2.0351    1.0509 C   0  0  0  0  0  0  0  0  0  0  0  0
    4.0807   -2.4307    3.0137 H   0  0  0  0  0  0  0  0  0  0  0  0
    2.3316   -2.7605    3.0244 H   0  0  0  0  0  0  0  0  0  0  0  0
    3.4663   -3.9946    2.4263 H   0  0  0  0  0  0  0  0  0  0  0  0
    2.3321   -2.8428    0.5461 H   0  0  0  0  0  0  0  0  0  0  0  0
    4.0812   -2.5129    0.5355 H   0  0  0  0  0  0  0  0  0  0  0  0
    0.0021   -0.0041    0.0020 H   0  0  0  0  0  0  0  0  0  0  0  0
   -3.4817   -0.5926    1.2646 H   0  0  0  0  0  0  0  0  0  0  0  0
   -1.7072   -0.7318    1.2554 H   0  0  0  0  0  0  0  0  0  0  0  0
   -1.5337    1.3968    2.5155 H   0  0  0  0  0  0  0  0  0  0  0  0
   -2.5152    0.2068    3.4037 H   0  0  0  0  0  0  0  0  0  0  0  0
   -3.5930    2.4399    3.4209 H   0  0  0  0  0  0  0  0  0  0  0  0
   -4.5830    1.2596    2.5292 H   0  0  0  0  0  0  0  0  0  0  0  0
   -2.6468    3.2626    1.2816 H   0  0  0  0  0  0  0  0  0  0  0  0
   -4.4213    3.4018    1.2908 H   0  0  0  0  0  0  0  0  0  0  0  0
    3.4541    5.5793    0.0011 H   0  0  0  0  0  0  0  0  0  0  0  0
    4.7089    4.6667    0.8735 H   0  0  0  0  0  0  0  0  0  0  0  0
    4.6915    4.6773   -0.9064 H   0  0  0  0  0  0  0  0  0  0  0  0
    4.8583    0.8323   -1.9781 H   0  0  0  0  0  0  0  0  0  0  0  0
    7.2261    0.1654   -2.0002 H   0  0  0  0  0  0  0  0  0  0  0  0
    8.6719    0.6820   -0.0779 H   0  0  0  0  0  0  0  0  0  0  0  0
    7.7617    1.8754    1.8714 H   0  0  0  0  0  0  0  0  0  0  0  0
    5.3989    2.5592    1.9072 H   0  0  0  0  0  0  0  0  0  0  0  0
   -4.5333    3.6443   -1.3996 O   0  5  0  0  0  0  0  0  0  0  0  0
  1  2  1  0  0  0  0
  1 31  1  0  0  0  0
  1 32  1  0  0  0  0
  1 33  1  0  0  0  0
  2  3  1  0  0  0  0
  2 34  1  0  0  0  0
  2 35  1  0  0  0  0
  3  4  1  0  0  0  0
  4  5  2  0  0  0  0
  4  6  1  0  0  0  0
  6 10  2  0  0  0  0
  6  7  1  0  0  0  0
  7  8  2  0  0  0  0
  7 25  1  0  0  0  0
  8  9  1  0  0  0  0
  8 24  1  0  0  0  0
  9 10  1  0  0  0  0
 10 11  1  0  0  0  0
 11 12  1  0  0  0  0
 11 36  1  0  0  0  0
 12 13  2  0  0  0  0
 12 14  1  0  0  0  0
 14 15  1  0  0  0  0
 14 20  1  0  0  0  0
 14 16  1  0  0  0  0
 16 17  1  0  0  0  0
 16 37  1  0  0  0  0
 16 38  1  0  0  0  0
 17 18  1  0  0  0  0
 17 39  1  0  0  0  0
 17 40  1  0  0  0  0
 18 19  1  0  0  0  0
 18 41  1  0  0  0  0
 18 42  1  0  0  0  0
 19 20  1  0  0  0  0
 19 43  1  0  0  0  0
 19 44  1  0  0  0  0
 20 21  1  0  0  0  0
 20 22  1  0  0  0  0
 22 23  2  0  0  0  0
 22 53  1  0  0  0  0
 24 45  1  0  0  0  0
 24 46  1  0  0  0  0
 24 47  1  0  0  0  0
 25 30  2  0  0  0  0
 25 26  1  0  0  0  0
 26 27  2  0  0  0  0
 26 48  1  0  0  0  0
 27 28  1  0  0  0  0
 27 49  1  0  0  0  0
 28 29  2  0  0  0  0
 28 50  1  0  0  0  0
 29 30  1  0  0  0  0
 29 51  1  0  0  0  0
 30 52  1  0  0  0  0
M  CHG  1  53  -1
M  END
$$$$
ZINC02761552
  -OEChem-08230709463D

 53 55  0     1  0  0  0  0  0999 V2000
   -5.4223    5.5263   -5.2377 C   0  0  0  0  0  0  0  0  0  0  0  0
   -5.0958    4.0526   -5.4876 C   0  0  0  0  0  0  0  0  0  0  0  0
   -5.3368    3.2910   -4.2751 O   0  0  0  0  0  0  0  0  0  0  0  0
   -5.0958    1.9648   -4.3268 C   0  0  0  0  0  0  0  0  0  0  0  0
   -4.6950    1.4591   -5.3581 O   0  0  0  0  0  0  0  0  0  0  0  0
   -5.3164    1.1345   -3.1427 C   0  0  0  0  0  0  0  0  0  0  0  0
   -6.5958    0.5009   -2.8852 C   0  0  0  0  0  0  0  0  0  0  0  0
   -6.6920   -0.2425   -1.7535 C   0  0  0  0  0  0  0  0  0  0  0  0
   -5.0698   -0.1034   -1.0329 S   0  0  0  0  0  0  0  0  0  0  0  0
   -4.3103    0.9111   -2.2121 C   0  0  0  0  0  0  0  0  0  0  0  0
   -3.0103    1.3907   -2.2219 N   0  0  0  0  0  0  0  0  0  0  0  0
   -2.1665    1.0710   -1.2208 C   0  0  0  0  0  0  0  0  0  0  0  0
   -2.5450    0.3636   -0.3114 O   0  0  0  0  0  0  0  0  0  0  0  0
   -0.7527    1.5927   -1.2315 C   0  0  2  0  0  0  0  0  0  0  0  0
   -0.7675    2.6825   -1.2255 H   0  0  0  0  0  0  0  0  0  0  0  0
   -0.0366    1.0992   -2.4903 C   0  0  0  0  0  0  0  0  0  0  0  0
    1.3988    1.6288   -2.5012 C   0  0  0  0  0  0  0  0  0  0  0  0
    2.1388    1.1220   -1.2617 C   0  0  0  0  0  0  0  0  0  0  0  0
    1.4227    1.6154   -0.0028 C   0  0  0  0  0  0  0  0  0  0  0  0
   -0.0127    1.0858    0.0080 C   0  0  1  0  0  0  0  0  0  0  0  0
    0.0021   -0.0041    0.0020 H   0  0  0  0  0  0  0  0  0  0  0  0
   -0.7181    1.5718    1.2479 C   0  0  0  0  0  0  0  0  0  0  0  0
   -1.7108    2.2536    1.1502 O   0  0  0  0  0  0  0  0  0  0  0  0
   -7.8846   -1.0021   -1.2323 C   0  0  0  0  0  0  0  0  0  0  0  0
   -7.7435    0.6625   -3.8093 C   0  0  0  0  0  0  0  0  0  0  0  0
   -7.6758    0.1524   -5.1051 C   0  0  0  0  0  0  0  0  0  0  0  0
   -8.7494    0.3012   -5.9592 C   0  0  0  0  0  0  0  0  0  0  0  0
   -9.8871    0.9645   -5.5355 C   0  0  0  0  0  0  0  0  0  0  0  0
   -9.9580    1.4772   -4.2526 C   0  0  0  0  0  0  0  0  0  0  0  0
   -8.8927    1.3300   -3.3879 C   0  0  0  0  0  0  0  0  0  0  0  0
   -6.4693    5.6227   -4.9501 H   0  0  0  0  0  0  0  0  0  0  0  0
   -4.7889    5.9080   -4.4370 H   0  0  0  0  0  0  0  0  0  0  0  0
   -5.2414    6.0980   -6.1479 H   0  0  0  0  0  0  0  0  0  0  0  0
   -4.0489    3.9561   -5.7752 H   0  0  0  0  0  0  0  0  0  0  0  0
   -5.7292    3.6708   -6.2884 H   0  0  0  0  0  0  0  0  0  0  0  0
   -2.7076    1.9566   -2.9493 H   0  0  0  0  0  0  0  0  0  0  0  0
   -0.5637    1.4603   -3.3734 H   0  0  0  0  0  0  0  0  0  0  0  0
   -0.0218    0.0093   -2.4963 H   0  0  0  0  0  0  0  0  0  0  0  0
    1.3840    2.7187   -2.4952 H   0  0  0  0  0  0  0  0  0  0  0  0
    1.9090    1.2773   -3.3980 H   0  0  0  0  0  0  0  0  0  0  0  0
    3.1614    1.4993   -1.2694 H   0  0  0  0  0  0  0  0  0  0  0  0
    2.1536    0.0321   -1.2676 H   0  0  0  0  0  0  0  0  0  0  0  0
    1.4079    2.7053    0.0031 H   0  0  0  0  0  0  0  0  0  0  0  0
    1.9499    1.2543    0.8802 H   0  0  0  0  0  0  0  0  0  0  0  0
   -7.6216   -1.4930   -0.2954 H   0  0  0  0  0  0  0  0  0  0  0  0
   -8.7094   -0.3104   -1.0610 H   0  0  0  0  0  0  0  0  0  0  0  0
   -8.1855   -1.7523   -1.9636 H   0  0  0  0  0  0  0  0  0  0  0  0
   -6.7864   -0.3617   -5.4384 H   0  0  0  0  0  0  0  0  0  0  0  0
   -8.6997   -0.0970   -6.9619 H   0  0  0  0  0  0  0  0  0  0  0  0
  -10.7230    1.0827   -6.2090 H   0  0  0  0  0  0  0  0  0  0  0  0
  -10.8487    1.9941   -3.9273 H   0  0  0  0  0  0  0  0  0  0  0  0
   -8.9489    1.7313   -2.3868 H   0  0  0  0  0  0  0  0  0  0  0  0
   -0.2435    1.2473    2.4608 O   0  5  0  0  0  0  0  0  0  0  0  0
  1  2  1  0  0  0  0
  1 31  1  0  0  0  0
  1 32  1  0  0  0  0
  1 33  1  0  0  0  0
  2  3  1  0  0  0  0
  2 34  1  0  0  0  0
  2 35  1  0  0  0  0
  3  4  1  0  0  0  0
  4  5  2  0  0  0  0
  4  6  1  0  0  0  0
  6 10  2  0  0  0  0
  6  7  1  0  0  0  0
  7  8  2  0  0  0  0
  7 25  1  0  0  0  0
  8  9  1  0  0  0  0
  8 24  1  0  0  0  0
  9 10  1  0  0  0  0
 10 11  1  0  0  0  0
 11 12  1  0  0  0  0
 11 36  1  0  0  0  0
 12 13  2  0  0  0  0
 12 14  1  0  0  0  0
 14 15  1  0  0  0  0
 14 20  1  0  0  0  0
 14 16  1  0  0  0  0
 16 17  1  0  0  0  0
 16 37  1  0  0  0  0
 16 38  1  0  0  0  0
 17 18  1  0  0  0  0
 17 39  1  0  0  0  0
 17 40  1  0  0  0  0
 18 19  1  0  0  0  0
 18 41  1  0  0  0  0
 18 42  1  0  0  0  0
 19 20  1  0  0  0  0
 19 43  1  0  0  0  0
 19 44  1  0  0  0  0
 20 21  1  0  0  0  0
 20 22  1  0  0  0  0
 22 23  2  0  0  0  0
 22 53  1  0  0  0  0
 24 45  1  0  0  0  0
 24 46  1  0  0  0  0
 24 47  1  0  0  0  0
 25 30  2  0  0  0  0
 25 26  1  0  0  0  0
 26 27  2  0  0  0  0
 26 48  1  0  0  0  0
 27 28  1  0  0  0  0
 27 49  1  0  0  0  0
 28 29  2  0  0  0  0
 28 50  1  0  0  0  0
 29 30  1  0  0  0  0
 29 51  1  0  0  0  0
 30 52  1  0  0  0  0
M  CHG  1  53  -1
M  END
$$$$
ZINC02761553
  -OEChem-08230709463D

 53 55  0     1  0  0  0  0  0999 V2000
   -7.2959    1.1495   -0.5243 C   0  0  0  0  0  0  0  0  0  0  0  0
   -6.5095    0.3204    0.4931 C   0  0  0  0  0  0  0  0  0  0  0  0
   -5.6338    1.1927    1.2550 O   0  0  0  0  0  0  0  0  0  0  0  0
   -4.8655    0.6144    2.2011 C   0  0  0  0  0  0  0  0  0  0  0  0
   -4.9265   -0.5868    2.3837 O   0  0  0  0  0  0  0  0  0  0  0  0
   -3.9591    1.4318    3.0075 C   0  0  0  0  0  0  0  0  0  0  0  0
   -4.3819    2.0249    4.2621 C   0  0  0  0  0  0  0  0  0  0  0  0
   -3.4617    2.7703    4.9256 C   0  0  0  0  0  0  0  0  0  0  0  0
   -2.0248    2.6746    3.8785 S   0  0  0  0  0  0  0  0  0  0  0  0
   -2.6504    1.6744    2.6117 C   0  0  0  0  0  0  0  0  0  0  0  0
   -2.0018    1.2275    1.4716 N   0  0  0  0  0  0  0  0  0  0  0  0
   -0.7181    1.5718    1.2479 C   0  0  0  0  0  0  0  0  0  0  0  0
   -0.1306    2.2727    2.0444 O   0  0  0  0  0  0  0  0  0  0  0  0
   -0.0127    1.0858    0.0080 C   0  0  1  0  0  0  0  0  0  0  0  0
    0.0021   -0.0041    0.0020 H   0  0  0  0  0  0  0  0  0  0  0  0
   -0.7527    1.5927   -1.2315 C   0  0  0  0  0  0  0  0  0  0  0  0
   -0.0366    1.0992   -2.4903 C   0  0  0  0  0  0  0  0  0  0  0  0
    1.3988    1.6288   -2.5012 C   0  0  0  0  0  0  0  0  0  0  0  0
    2.1388    1.1220   -1.2617 C   0  0  0  0  0  0  0  0  0  0  0  0
    1.4227    1.6154   -0.0028 C   0  0  2  0  0  0  0  0  0  0  0  0
    1.4079    2.7053    0.0031 H   0  0  0  0  0  0  0  0  0  0  0  0
    2.1515    1.1162    1.2180 C   0  0  0  0  0  0  0  0  0  0  0  0
    1.5814    0.4093    2.0151 O   0  0  0  0  0  0  0  0  0  0  0  0
   -3.6185    3.5026    6.2333 C   0  0  0  0  0  0  0  0  0  0  0  0
   -5.7532    1.8315    4.7905 C   0  0  0  0  0  0  0  0  0  0  0  0
   -6.1849    0.5607    5.1683 C   0  0  0  0  0  0  0  0  0  0  0  0
   -7.4606    0.3879    5.6653 C   0  0  0  0  0  0  0  0  0  0  0  0
   -8.3145    1.4704    5.7779 C   0  0  0  0  0  0  0  0  0  0  0  0
   -7.8939    2.7325    5.3989 C   0  0  0  0  0  0  0  0  0  0  0  0
   -6.6184    2.9187    4.9063 C   0  0  0  0  0  0  0  0  0  0  0  0
   -7.8928    1.8963   -0.0008 H   0  0  0  0  0  0  0  0  0  0  0  0
   -6.6018    1.6483   -1.2007 H   0  0  0  0  0  0  0  0  0  0  0  0
   -7.9533    0.4947   -1.0963 H   0  0  0  0  0  0  0  0  0  0  0  0
   -5.9126   -0.4264   -0.0305 H   0  0  0  0  0  0  0  0  0  0  0  0
   -7.2037   -0.1784    1.1695 H   0  0  0  0  0  0  0  0  0  0  0  0
   -2.4717    0.6670    0.8345 H   0  0  0  0  0  0  0  0  0  0  0  0
   -1.7753    1.2154   -1.2238 H   0  0  0  0  0  0  0  0  0  0  0  0
   -0.7675    2.6825   -1.2255 H   0  0  0  0  0  0  0  0  0  0  0  0
   -0.5637    1.4603   -3.3734 H   0  0  0  0  0  0  0  0  0  0  0  0
   -0.0218    0.0093   -2.4963 H   0  0  0  0  0  0  0  0  0  0  0  0
    1.3840    2.7187   -2.4952 H   0  0  0  0  0  0  0  0  0  0  0  0
    1.9090    1.2773   -3.3980 H   0  0  0  0  0  0  0  0  0  0  0  0
    3.1614    1.4993   -1.2694 H   0  0  0  0  0  0  0  0  0  0  0  0
    2.1536    0.0321   -1.2676 H   0  0  0  0  0  0  0  0  0  0  0  0
   -2.6836    4.0040    6.4833 H   0  0  0  0  0  0  0  0  0  0  0  0
   -4.4144    4.2418    6.1427 H   0  0  0  0  0  0  0  0  0  0  0  0
   -3.8710    2.7915    7.0199 H   0  0  0  0  0  0  0  0  0  0  0  0
   -5.5206   -0.2858    5.0766 H   0  0  0  0  0  0  0  0  0  0  0  0
   -7.7945   -0.5952    5.9628 H   0  0  0  0  0  0  0  0  0  0  0  0
   -9.3137    1.3295    6.1629 H   0  0  0  0  0  0  0  0  0  0  0  0
   -8.5649    3.5739    5.4890 H   0  0  0  0  0  0  0  0  0  0  0  0
   -6.2908    3.9046    4.6113 H   0  0  0  0  0  0  0  0  0  0  0  0
    3.4341    1.4568    1.4201 O   0  5  0  0  0  0  0  0  0  0  0  0
  1  2  1  0  0  0  0
  1 31  1  0  0  0  0
  1 32  1  0  0  0  0
  1 33  1  0  0  0  0
  2  3  1  0  0  0  0
  2 34  1  0  0  0  0
  2 35  1  0  0  0  0
  3  4  1  0  0  0  0
  4  5  2  0  0  0  0
  4  6  1  0  0  0  0
  6 10  2  0  0  0  0
  6  7  1  0  0  0  0
  7  8  2  0  0  0  0
  7 25  1  0  0  0  0
  8  9  1  0  0  0  0
  8 24  1  0  0  0  0
  9 10  1  0  0  0  0
 10 11  1  0  0  0  0
 11 12  1  0  0  0  0
 11 36  1  0  0  0  0
 12 13  2  0  0  0  0
 12 14  1  0  0  0  0
 14 15  1  0  0  0  0
 14 20  1  0  0  0  0
 14 16  1  0  0  0  0
 16 17  1  0  0  0  0
 16 37  1  0  0  0  0
 16 38  1  0  0  0  0
 17 18  1  0  0  0  0
 17 39  1  0  0  0  0
 17 40  1  0  0  0  0
 18 19  1  0  0  0  0
 18 41  1  0  0  0  0
 18 42  1  0  0  0  0
 19 20  1  0  0  0  0
 19 43  1  0  0  0  0
 19 44  1  0  0  0  0
 20 21  1  0  0  0  0
 20 22  1  0  0  0  0
 22 23  2  0  0  0  0
 22 53  1  0  0  0  0
 24 45  1  0  0  0  0
 24 46  1  0  0  0  0
 24 47  1  0  0  0  0
 25 30  2  0  0  0  0
 25 26  1  0  0  0  0
 26 27  2  0  0  0  0
 26 48  1  0  0  0  0
 27 28  1  0  0  0  0
 27 49  1  0  0  0  0
 28 29  2  0  0  0  0
 28 50  1  0  0  0  0
 29 30  1  0  0  0  0
 29 51  1  0  0  0  0
 30 52  1  0  0  0  0
M  CHG  1  53  -1
M  END
$$$$
ZINC02761554
  -OEChem-08230709463D

 53 55  0     1  0  0  0  0  0999 V2000
   -1.4333   -0.5336    0.0129 C   0  0  0  0  0  0  0  0  0  0  0  0
    0.0021   -0.0041    0.0020 C   0  0  0  0  0  0  0  0  0  0  0  0
   -0.0176    1.4478    0.0100 O   0  0  0  0  0  0  0  0  0  0  0  0
    1.1759    2.0765    0.0020 C   0  0  0  0  0  0  0  0  0  0  0  0
    2.2050    1.4279   -0.0113 O   0  0  0  0  0  0  0  0  0  0  0  0
    1.2326    3.5383    0.0093 C   0  0  0  0  0  0  0  0  0  0  0  0
    1.2503    4.3053   -1.2220 C   0  0  0  0  0  0  0  0  0  0  0  0
    1.3034    5.6560   -1.0989 C   0  0  0  0  0  0  0  0  0  0  0  0
    1.3299    5.9061    0.6638 S   0  0  0  0  0  0  0  0  0  0  0  0
    1.2663    4.2599    1.1951 C   0  0  0  0  0  0  0  0  0  0  0  0
    1.2541    3.7773    2.4940 N   0  0  0  0  0  0  0  0  0  0  0  0
    1.2923    4.6358    3.5323 C   0  0  0  0  0  0  0  0  0  0  0  0
    1.3373    5.8307    3.3298 O   0  0  0  0  0  0  0  0  0  0  0  0
    1.2791    4.1110    4.9449 C   0  0  2  0  0  0  0  0  0  0  0  0
    2.1458    3.4689    5.1021 H   0  0  0  0  0  0  0  0  0  0  0  0
   -0.0010    3.3059    5.1778 C   0  0  0  0  0  0  0  0  0  0  0  0
   -1.2175    4.2071    4.9572 C   0  0  0  0  0  0  0  0  0  0  0  0
   -1.1675    5.3805    5.9378 C   0  0  0  0  0  0  0  0  0  0  0  0
    0.1125    6.1856    5.7048 C   0  0  0  0  0  0  0  0  0  0  0  0
    1.3291    5.2844    5.9254 C   0  0  2  0  0  0  0  0  0  0  0  0
    1.3195    4.9048    6.9471 H   0  0  0  0  0  0  0  0  0  0  0  0
    2.5899    6.0774    5.6960 C   0  0  0  0  0  0  0  0  0  0  0  0
    3.3685    5.7387    4.8364 O   0  0  0  0  0  0  0  0  0  0  0  0
    1.3322    6.6940   -2.1911 C   0  0  0  0  0  0  0  0  0  0  0  0
    1.2128    3.6463   -2.5492 C   0  0  0  0  0  0  0  0  0  0  0  0
    2.2745    2.8421   -2.9615 C   0  0  0  0  0  0  0  0  0  0  0  0
    2.2320    2.2277   -4.1964 C   0  0  0  0  0  0  0  0  0  0  0  0
    1.1434    2.4165   -5.0288 C   0  0  0  0  0  0  0  0  0  0  0  0
    0.0892    3.2171   -4.6271 C   0  0  0  0  0  0  0  0  0  0  0  0
    0.1183    3.8328   -3.3925 C   0  0  0  0  0  0  0  0  0  0  0  0
   -1.4185   -1.6235    0.0069 H   0  0  0  0  0  0  0  0  0  0  0  0
   -1.9435   -0.1821    0.9097 H   0  0  0  0  0  0  0  0  0  0  0  0
   -1.9605   -0.1726   -0.8702 H   0  0  0  0  0  0  0  0  0  0  0  0
    0.5123   -0.3556   -0.8948 H   0  0  0  0  0  0  0  0  0  0  0  0
    0.5293   -0.3651    0.8851 H   0  0  0  0  0  0  0  0  0  0  0  0
    1.2181    2.8216    2.6560 H   0  0  0  0  0  0  0  0  0  0  0  0
   -0.0366    2.4699    4.4793 H   0  0  0  0  0  0  0  0  0  0  0  0
   -0.0105    2.9263    6.1996 H   0  0  0  0  0  0  0  0  0  0  0  0
   -2.1295    3.6335    5.1232 H   0  0  0  0  0  0  0  0  0  0  0  0
   -1.2080    4.5867    3.9355 H   0  0  0  0  0  0  0  0  0  0  0  0
   -1.1771    5.0009    6.9595 H   0  0  0  0  0  0  0  0  0  0  0  0
   -2.0342    6.0226    5.7806 H   0  0  0  0  0  0  0  0  0  0  0  0
    0.1482    7.0216    6.4034 H   0  0  0  0  0  0  0  0  0  0  0  0
    0.1221    6.5652    4.6831 H   0  0  0  0  0  0  0  0  0  0  0  0
    0.3122    6.9837   -2.4440 H   0  0  0  0  0  0  0  0  0  0  0  0
    1.8835    7.5689   -1.8465 H   0  0  0  0  0  0  0  0  0  0  0  0
    1.8216    6.2803   -3.0728 H   0  0  0  0  0  0  0  0  0  0  0  0
    3.1269    2.6976   -2.3143 H   0  0  0  0  0  0  0  0  0  0  0  0
    3.0523    1.6018   -4.5155 H   0  0  0  0  0  0  0  0  0  0  0  0
    1.1165    1.9372   -5.9963 H   0  0  0  0  0  0  0  0  0  0  0  0
   -0.7581    3.3609   -5.2812 H   0  0  0  0  0  0  0  0  0  0  0  0
   -0.7049    4.4583   -3.0802 H   0  0  0  0  0  0  0  0  0  0  0  0
    2.8479    7.1599    6.4465 O   0  5  0  0  0  0  0  0  0  0  0  0
  1  2  1  0  0  0  0
  1 31  1  0  0  0  0
  1 32  1  0  0  0  0
  1 33  1  0  0  0  0
  2  3  1  0  0  0  0
  2 34  1  0  0  0  0
  2 35  1  0  0  0  0
  3  4  1  0  0  0  0
  4  5  2  0  0  0  0
  4  6  1  0  0  0  0
  6 10  2  0  0  0  0
  6  7  1  0  0  0  0
  7  8  2  0  0  0  0
  7 25  1  0  0  0  0
  8  9  1  0  0  0  0
  8 24  1  0  0  0  0
  9 10  1  0  0  0  0
 10 11  1  0  0  0  0
 11 12  1  0  0  0  0
 11 36  1  0  0  0  0
 12 13  2  0  0  0  0
 12 14  1  0  0  0  0
 14 15  1  0  0  0  0
 14 20  1  0  0  0  0
 14 16  1  0  0  0  0
 16 17  1  0  0  0  0
 16 37  1  0  0  0  0
 16 38  1  0  0  0  0
 17 18  1  0  0  0  0
 17 39  1  0  0  0  0
 17 40  1  0  0  0  0
 18 19  1  0  0  0  0
 18 41  1  0  0  0  0
 18 42  1  0  0  0  0
 19 20  1  0  0  0  0
 19 43  1  0  0  0  0
 19 44  1  0  0  0  0
 20 21  1  0  0  0  0
 20 22  1  0  0  0  0
 22 23  2  0  0  0  0
 22 53  1  0  0  0  0
 24 45  1  0  0  0  0
 24 46  1  0  0  0  0
 24 47  1  0  0  0  0
 25 30  2  0  0  0  0
 25 26  1  0  0  0  0
 26 27  2  0  0  0  0
 26 48  1  0  0  0  0
 27 28  1  0  0  0  0
 27 49  1  0  0  0  0
 28 29  2  0  0  0  0
 28 50  1  0  0  0  0
 29 30  1  0  0  0  0
 29 51  1  0  0  0  0
 30 52  1  0  0  0  0
M  CHG  1  53  -1
M  END
$$$$
ZINC02762585
  -OEChem-08230709463D

 54 57  0     1  0  0  0  0  0999 V2000
    1.4720   -0.5831   -3.7592 C   0  0  0  0  0  0  0  0  0  0  0  0
    2.0636    0.2598   -2.6276 C   0  0  0  0  0  0  0  0  0  0  0  0
    2.8048   -0.5987   -1.7212 O   0  0  0  0  0  0  0  0  0  0  0  0
    3.3934   -0.0072   -0.6612 C   0  0  0  0  0  0  0  0  0  0  0  0
    3.2894    1.1941   -0.4997 O   0  0  0  0  0  0  0  0  0  0  0  0
    4.1568   -0.8102    0.2939 C   0  0  0  0  0  0  0  0  0  0  0  0
    3.5304   -1.4064    1.4588 C   0  0  0  0  0  0  0  0  0  0  0  0
    4.3314   -2.1363    2.2762 C   0  0  0  0  0  0  0  0  0  0  0  0
    5.9271   -2.0223    1.4945 S   0  0  0  0  0  0  0  0  0  0  0  0
    5.5176   -1.0350    0.1329 C   0  0  0  0  0  0  0  0  0  0  0  0
    6.3485   -0.5813   -0.8790 N   0  0  0  0  0  0  0  0  0  0  0  0
    7.6562   -0.9074   -0.8742 C   0  0  0  0  0  0  0  0  0  0  0  0
    8.1250   -1.5201    0.0616 O   0  0  0  0  0  0  0  0  0  0  0  0
    8.5359   -0.5108   -2.0318 C   0  0  2  0  0  0  0  0  0  0  0  0
    7.9541   -0.4666   -2.9525 H   0  0  0  0  0  0  0  0  0  0  0  0
    9.7192   -1.5147   -2.1841 C   0  0  1  0  0  0  0  0  0  0  0  0
    9.4710   -2.5676   -2.0502 H   0  0  0  0  0  0  0  0  0  0  0  0
   10.3781   -1.1376   -3.5461 C   0  0  0  0  0  0  0  0  0  0  0  0
   11.0550    0.2280   -3.2879 C   0  0  0  0  0  0  0  0  0  0  0  0
   10.7412    0.5473   -1.7943 C   0  0  2  0  0  0  0  0  0  0  0  0
   11.3917    1.2802   -1.3169 H   0  0  0  0  0  0  0  0  0  0  0  0
   10.7466   -0.9091   -1.1638 C   0  0  0  0  0  0  0  0  0  0  0  0
    9.2121    0.8510   -1.7528 C   0  0  2  0  0  0  0  0  0  0  0  0
    8.9640    1.5662   -2.5371 H   0  0  0  0  0  0  0  0  0  0  0  0
    8.7921    1.3799   -0.4057 C   0  0  0  0  0  0  0  0  0  0  0  0
    9.4580    1.1375    0.5730 O   0  0  0  0  0  0  0  0  0  0  0  0
    2.0853   -1.2321    1.7392 C   0  0  0  0  0  0  0  0  0  0  0  0
    1.2877   -2.3414    2.0172 C   0  0  0  0  0  0  0  0  0  0  0  0
   -0.0580   -2.1735    2.2723 C   0  0  0  0  0  0  0  0  0  0  0  0
   -0.6137   -0.9067    2.2640 C   0  0  0  0  0  0  0  0  0  0  0  0
    0.1728    0.1977    1.9888 C   0  0  0  0  0  0  0  0  0  0  0  0
    1.5186    0.0416    1.7265 C   0  0  0  0  0  0  0  0  0  0  0  0
   -2.0827   -0.7295    2.5496 C   0  0  0  0  0  0  0  0  0  0  0  0
    0.9156    0.0614   -4.4397 H   0  0  0  0  0  0  0  0  0  0  0  0
    2.2770   -1.0771   -4.3033 H   0  0  0  0  0  0  0  0  0  0  0  0
    0.8021   -1.3342   -3.3407 H   0  0  0  0  0  0  0  0  0  0  0  0
    1.2585    0.7538   -2.0835 H   0  0  0  0  0  0  0  0  0  0  0  0
    2.7335    1.0109   -3.0461 H   0  0  0  0  0  0  0  0  0  0  0  0
    4.0650   -2.6600    3.1823 H   0  0  0  0  0  0  0  0  0  0  0  0
    5.9889   -0.0290   -1.5907 H   0  0  0  0  0  0  0  0  0  0  0  0
   11.1218   -1.8830   -3.8277 H   0  0  0  0  0  0  0  0  0  0  0  0
    9.6190   -1.0446   -4.3227 H   0  0  0  0  0  0  0  0  0  0  0  0
   12.1314    0.1539   -3.4426 H   0  0  0  0  0  0  0  0  0  0  0  0
   10.6285    0.9923   -3.9376 H   0  0  0  0  0  0  0  0  0  0  0  0
   10.3688   -0.9309   -0.1416 H   0  0  0  0  0  0  0  0  0  0  0  0
   11.7267   -1.3796   -1.2426 H   0  0  0  0  0  0  0  0  0  0  0  0
    1.7213   -3.3304    2.0285 H   0  0  0  0  0  0  0  0  0  0  0  0
   -0.6779   -3.0325    2.4830 H   0  0  0  0  0  0  0  0  0  0  0  0
   -0.2673    1.1839    1.9796 H   0  0  0  0  0  0  0  0  0  0  0  0
    2.1315    0.9045    1.5115 H   0  0  0  0  0  0  0  0  0  0  0  0
   -2.6439   -0.7889    1.6170 H   0  0  0  0  0  0  0  0  0  0  0  0
   -2.4186   -1.5151    3.2264 H   0  0  0  0  0  0  0  0  0  0  0  0
   -2.2482    0.2436    3.0119 H   0  0  0  0  0  0  0  0  0  0  0  0
    7.6782    2.1204   -0.2930 O   0  5  0  0  0  0  0  0  0  0  0  0
  1  2  1  0  0  0  0
  1 34  1  0  0  0  0
  1 35  1  0  0  0  0
  1 36  1  0  0  0  0
  2  3  1  0  0  0  0
  2 37  1  0  0  0  0
  2 38  1  0  0  0  0
  3  4  1  0  0  0  0
  4  5  2  0  0  0  0
  4  6  1  0  0  0  0
  6 10  2  0  0  0  0
  6  7  1  0  0  0  0
  7  8  2  0  0  0  0
  7 27  1  0  0  0  0
  8  9  1  0  0  0  0
  8 39  1  0  0  0  0
  9 10  1  0  0  0  0
 10 11  1  0  0  0  0
 11 12  1  0  0  0  0
 11 40  1  0  0  0  0
 12 13  2  0  0  0  0
 12 14  1  0  0  0  0
 14 15  1  0  0  0  0
 14 23  1  0  0  0  0
 14 16  1  0  0  0  0
 16 17  1  0  0  0  0
 16 22  1  0  0  0  0
 16 18  1  0  0  0  0
 18 19  1  0  0  0  0
 18 41  1  0  0  0  0
 18 42  1  0  0  0  0
 19 20  1  0  0  0  0
 19 43  1  0  0  0  0
 19 44  1  0  0  0  0
 20 21  1  0  0  0  0
 20 22  1  0  0  0  0
 20 23  1  0  0  0  0
 22 45  1  0  0  0  0
 22 46  1  0  0  0  0
 23 24  1  0  0  0  0
 23 25  1  0  0  0  0
 25 26  2  0  0  0  0
 25 54  1  0  0  0  0
 27 32  2  0  0  0  0
 27 28  1  0  0  0  0
 28 29  2  0  0  0  0
 28 47  1  0  0  0  0
 29 30  1  0  0  0  0
 29 48  1  0  0  0  0
 30 31  2  0  0  0  0
 30 33  1  0  0  0  0
 31 32  1  0  0  0  0
 31 49  1  0  0  0  0
 32 50  1  0  0  0  0
 33 51  1  0  0  0  0
 33 52  1  0  0  0  0
 33 53  1  0  0  0  0
M  CHG  1  54  -1
M  END
$$$$
ZINC02763012
  -OEChem-08230709463D

 57 60  0     1  0  0  0  0  0999 V2000
   -0.2558    2.2235   -1.0233 C   0  0  0  0  0  0  0  0  0  0  0  0
    0.0536    0.7311   -0.8896 C   0  0  0  0  0  0  0  0  0  0  0  0
    0.6059    0.2375   -2.1385 O   0  0  0  0  0  0  0  0  0  0  0  0
    0.9350   -1.0697   -2.1883 C   0  0  0  0  0  0  0  0  0  0  0  0
    0.7647   -1.7775   -1.2137 O   0  0  0  0  0  0  0  0  0  0  0  0
    1.4968   -1.6363   -3.4145 C   0  0  0  0  0  0  0  0  0  0  0  0
    2.9185   -1.5790   -3.6974 C   0  0  0  0  0  0  0  0  0  0  0  0
    3.3322   -2.1408   -4.8618 C   0  0  0  0  0  0  0  0  0  0  0  0
    1.8201   -2.7358   -5.5896 S   0  0  0  0  0  0  0  0  0  0  0  0
    0.6947   -2.2502   -4.3673 C   0  0  0  0  0  0  0  0  0  0  0  0
   -0.6791   -2.4307   -4.3452 N   0  0  0  0  0  0  0  0  0  0  0  0
   -1.2932   -3.0558   -5.3691 C   0  0  0  0  0  0  0  0  0  0  0  0
   -0.6435   -3.4604   -6.3099 O   0  0  0  0  0  0  0  0  0  0  0  0
   -2.7872   -3.2520   -5.3451 C   0  0  1  0  0  0  0  0  0  0  0  0
   -3.2951   -2.2896   -5.2828 H   0  0  0  0  0  0  0  0  0  0  0  0
   -3.2535   -4.0318   -6.6123 C   0  0  2  0  0  0  0  0  0  0  0  0
   -2.7768   -3.7459   -7.5499 H   0  0  0  0  0  0  0  0  0  0  0  0
   -4.8101   -3.9511   -6.5695 C   0  0  0  0  0  0  0  0  0  0  0  0
   -5.2158   -4.8551   -5.3830 C   0  0  0  0  0  0  0  0  0  0  0  0
   -3.8661   -5.3969   -4.8207 C   0  0  1  0  0  0  0  0  0  0  0  0
   -3.9314   -6.2984   -4.2115 H   0  0  0  0  0  0  0  0  0  0  0  0
   -3.0267   -5.5119   -6.1419 C   0  0  0  0  0  0  0  0  0  0  0  0
   -3.1932   -4.1535   -4.1568 C   0  0  2  0  0  0  0  0  0  0  0  0
   -2.3122   -4.4548   -3.5900 H   0  0  0  0  0  0  0  0  0  0  0  0
   -4.1736   -3.4367   -3.2646 C   0  0  0  0  0  0  0  0  0  0  0  0
   -4.8323   -2.5231   -3.7019 O   0  0  0  0  0  0  0  0  0  0  0  0
    3.8732   -0.9434   -2.7584 C   0  0  0  0  0  0  0  0  0  0  0  0
    3.9320    0.4458   -2.6536 C   0  0  0  0  0  0  0  0  0  0  0  0
    4.8187    1.0316   -1.7736 C   0  0  0  0  0  0  0  0  0  0  0  0
    5.6564    0.2437   -1.0043 C   0  0  0  0  0  0  0  0  0  0  0  0
    5.6066   -1.1347   -1.1082 C   0  0  0  0  0  0  0  0  0  0  0  0
    4.7198   -1.7321   -1.9808 C   0  0  0  0  0  0  0  0  0  0  0  0
    4.6670   -3.2340   -2.0931 C   0  0  0  0  0  0  0  0  0  0  0  0
    6.6273    0.8899   -0.0500 C   0  0  0  0  0  0  0  0  0  0  0  0
    0.6612    2.7654   -1.2543 H   0  0  0  0  0  0  0  0  0  0  0  0
   -0.9788    2.3743   -1.8250 H   0  0  0  0  0  0  0  0  0  0  0  0
   -0.6704    2.5940   -0.0858 H   0  0  0  0  0  0  0  0  0  0  0  0
    0.7765    0.5803   -0.0879 H   0  0  0  0  0  0  0  0  0  0  0  0
   -0.8635    0.1892   -0.6586 H   0  0  0  0  0  0  0  0  0  0  0  0
    4.3362   -2.2068   -5.2545 H   0  0  0  0  0  0  0  0  0  0  0  0
   -1.1987   -2.1071   -3.5927 H   0  0  0  0  0  0  0  0  0  0  0  0
   -5.1327   -2.9250   -6.3930 H   0  0  0  0  0  0  0  0  0  0  0  0
   -5.2359   -4.3297   -7.4987 H   0  0  0  0  0  0  0  0  0  0  0  0
   -5.8411   -5.6782   -5.7289 H   0  0  0  0  0  0  0  0  0  0  0  0
   -5.7378   -4.2734   -4.6233 H   0  0  0  0  0  0  0  0  0  0  0  0
   -3.4564   -6.2324   -6.8378 H   0  0  0  0  0  0  0  0  0  0  0  0
   -1.9757   -5.7211   -5.9429 H   0  0  0  0  0  0  0  0  0  0  0  0
    3.2819    1.0619   -3.2571 H   0  0  0  0  0  0  0  0  0  0  0  0
    4.8623    2.1073   -1.6886 H   0  0  0  0  0  0  0  0  0  0  0  0
    6.2632   -1.7446   -0.5054 H   0  0  0  0  0  0  0  0  0  0  0  0
    5.2967   -3.5587   -2.9215 H   0  0  0  0  0  0  0  0  0  0  0  0
    5.0271   -3.6805   -1.1662 H   0  0  0  0  0  0  0  0  0  0  0  0
    3.6391   -3.5490   -2.2728 H   0  0  0  0  0  0  0  0  0  0  0  0
    7.5712    1.0759   -0.5625 H   0  0  0  0  0  0  0  0  0  0  0  0
    6.2142    1.8341    0.3047 H   0  0  0  0  0  0  0  0  0  0  0  0
    6.7989    0.2269    0.7981 H   0  0  0  0  0  0  0  0  0  0  0  0
   -4.3151   -3.8133   -1.9840 O   0  5  0  0  0  0  0  0  0  0  0  0
  1  2  1  0  0  0  0
  1 35  1  0  0  0  0
  1 36  1  0  0  0  0
  1 37  1  0  0  0  0
  2  3  1  0  0  0  0
  2 38  1  0  0  0  0
  2 39  1  0  0  0  0
  3  4  1  0  0  0  0
  4  5  2  0  0  0  0
  4  6  1  0  0  0  0
  6 10  2  0  0  0  0
  6  7  1  0  0  0  0
  7  8  2  0  0  0  0
  7 27  1  0  0  0  0
  8  9  1  0  0  0  0
  8 40  1  0  0  0  0
  9 10  1  0  0  0  0
 10 11  1  0  0  0  0
 11 12  1  0  0  0  0
 11 41  1  0  0  0  0
 12 13  2  0  0  0  0
 12 14  1  0  0  0  0
 14 15  1  0  0  0  0
 14 23  1  0  0  0  0
 14 16  1  0  0  0  0
 16 17  1  0  0  0  0
 16 22  1  0  0  0  0
 16 18  1  0  0  0  0
 18 19  1  0  0  0  0
 18 42  1  0  0  0  0
 18 43  1  0  0  0  0
 19 20  1  0  0  0  0
 19 44  1  0  0  0  0
 19 45  1  0  0  0  0
 20 21  1  0  0  0  0
 20 22  1  0  0  0  0
 20 23  1  0  0  0  0
 22 46  1  0  0  0  0
 22 47  1  0  0  0  0
 23 24  1  0  0  0  0
 23 25  1  0  0  0  0
 25 26  2  0  0  0  0
 25 57  1  0  0  0  0
 27 32  2  0  0  0  0
 27 28  1  0  0  0  0
 28 29  2  0  0  0  0
 28 48  1  0  0  0  0
 29 30  1  0  0  0  0
 29 49  1  0  0  0  0
 30 31  2  0  0  0  0
 30 34  1  0  0  0  0
 31 32  1  0  0  0  0
 31 50  1  0  0  0  0
 32 33  1  0  0  0  0
 33 51  1  0  0  0  0
 33 52  1  0  0  0  0
 33 53  1  0  0  0  0
 34 54  1  0  0  0  0
 34 55  1  0  0  0  0
 34 56  1  0  0  0  0
M  CHG  1  57  -1
M  END
$$$$
ZINC02763979
  -OEChem-08230709463D

 60 63  0     1  0  0  0  0  0999 V2000
   -6.1907    4.4095   -0.2085 C   0  0  0  0  0  0  0  0  0  0  0  0
   -5.2575    3.2526   -0.4564 C   0  0  0  0  0  0  0  0  0  0  0  0
   -4.3210    3.3263   -1.4722 C   0  0  0  0  0  0  0  0  0  0  0  0
   -3.4605    2.2688   -1.7051 C   0  0  0  0  0  0  0  0  0  0  0  0
   -3.5316    1.1329   -0.9243 C   0  0  0  0  0  0  0  0  0  0  0  0
   -4.4734    1.0526    0.1003 C   0  0  0  0  0  0  0  0  0  0  0  0
   -5.3421    2.1197    0.3267 C   0  0  0  0  0  0  0  0  0  0  0  0
   -4.5552   -0.1647    0.9420 C   0  0  0  0  0  0  0  0  0  0  0  0
   -5.6105   -1.0149    0.8639 C   0  0  0  0  0  0  0  0  0  0  0  0
   -5.2145   -2.2708    2.0623 S   0  0  0  0  0  0  0  0  0  0  0  0
   -3.6929   -1.6689    2.6269 C   0  0  0  0  0  0  0  0  0  0  0  0
   -3.5087   -0.5090    1.8860 C   0  0  0  0  0  0  0  0  0  0  0  0
   -2.3207    0.3280    2.0535 C   0  0  0  0  0  0  0  0  0  0  0  0
   -1.3130    0.0884    1.4156 O   0  0  0  0  0  0  0  0  0  0  0  0
   -2.3427    1.3656    2.9153 O   0  0  0  0  0  0  0  0  0  0  0  0
   -1.1281    2.1529    3.0303 C   0  0  0  0  0  0  0  0  0  0  0  0
   -1.4879    3.5963    3.3881 C   0  0  0  0  0  0  0  0  0  0  0  0
   -0.2393    1.5621    4.1266 C   0  0  0  0  0  0  0  0  0  0  0  0
   -2.8575   -2.2146    3.5885 N   0  0  0  0  0  0  0  0  0  0  0  0
   -3.2033   -3.3592    4.2104 C   0  0  0  0  0  0  0  0  0  0  0  0
   -4.2916   -3.8546    4.0077 O   0  0  0  0  0  0  0  0  0  0  0  0
   -2.2377   -4.0234    5.1578 C   0  0  1  0  0  0  0  0  0  0  0  0
   -1.4687   -3.3177    5.4719 H   0  0  0  0  0  0  0  0  0  0  0  0
   -2.9956   -4.5923    6.3961 C   0  0  2  0  0  0  0  0  0  0  0  0
   -3.7719   -3.9520    6.8151 H   0  0  0  0  0  0  0  0  0  0  0  0
   -1.8661   -5.0267    7.3793 C   0  0  0  0  0  0  0  0  0  0  0  0
   -1.2222   -6.2639    6.7128 C   0  0  0  0  0  0  0  0  0  0  0  0
   -2.0234   -6.4606    5.3896 C   0  0  1  0  0  0  0  0  0  0  0  0
   -1.9531   -7.4474    4.9322 H   0  0  0  0  0  0  0  0  0  0  0  0
   -3.4503   -5.9884    5.8416 C   0  0  0  0  0  0  0  0  0  0  0  0
   -1.5939   -5.2607    4.4913 C   0  0  1  0  0  0  0  0  0  0  0  0
   -0.5084   -5.1633    4.4777 H   0  0  0  0  0  0  0  0  0  0  0  0
   -2.1219   -5.4374    3.0909 C   0  0  0  0  0  0  0  0  0  0  0  0
   -3.1775   -5.9966    2.9094 O   0  0  0  0  0  0  0  0  0  0  0  0
   -2.5927   -0.0181   -1.1787 C   0  0  0  0  0  0  0  0  0  0  0  0
   -7.0946    4.2814   -0.8040 H   0  0  0  0  0  0  0  0  0  0  0  0
   -6.4540    4.4439    0.8487 H   0  0  0  0  0  0  0  0  0  0  0  0
   -5.6986    5.3403   -0.4907 H   0  0  0  0  0  0  0  0  0  0  0  0
   -4.2614    4.2133   -2.0855 H   0  0  0  0  0  0  0  0  0  0  0  0
   -2.7313    2.3321   -2.4992 H   0  0  0  0  0  0  0  0  0  0  0  0
   -6.0764    2.0614    1.1164 H   0  0  0  0  0  0  0  0  0  0  0  0
   -6.4826   -0.9441    0.2308 H   0  0  0  0  0  0  0  0  0  0  0  0
   -0.5932    2.1364    2.0807 H   0  0  0  0  0  0  0  0  0  0  0  0
   -2.0228    3.6127    4.3377 H   0  0  0  0  0  0  0  0  0  0  0  0
   -0.5761    4.1873    3.4744 H   0  0  0  0  0  0  0  0  0  0  0  0
   -2.1211    4.0172    2.6071 H   0  0  0  0  0  0  0  0  0  0  0  0
    0.0170    0.5338    3.8718 H   0  0  0  0  0  0  0  0  0  0  0  0
    0.6725    2.1531    4.2129 H   0  0  0  0  0  0  0  0  0  0  0  0
   -0.7742    1.5785    5.0762 H   0  0  0  0  0  0  0  0  0  0  0  0
   -2.0239   -1.7728    3.8139 H   0  0  0  0  0  0  0  0  0  0  0  0
   -2.2877   -5.2934    8.3484 H   0  0  0  0  0  0  0  0  0  0  0  0
   -1.1313   -4.2292    7.4901 H   0  0  0  0  0  0  0  0  0  0  0  0
   -1.3274   -7.1389    7.3543 H   0  0  0  0  0  0  0  0  0  0  0  0
   -0.1705   -6.0768    6.4960 H   0  0  0  0  0  0  0  0  0  0  0  0
   -4.1345   -5.8904    4.9988 H   0  0  0  0  0  0  0  0  0  0  0  0
   -3.8625   -6.6247    6.6248 H   0  0  0  0  0  0  0  0  0  0  0  0
   -3.0237   -0.6792   -1.9306 H   0  0  0  0  0  0  0  0  0  0  0  0
   -1.6370    0.3648   -1.5365 H   0  0  0  0  0  0  0  0  0  0  0  0
   -2.4384   -0.5725   -0.2530 H   0  0  0  0  0  0  0  0  0  0  0  0
   -1.4195   -4.9737    2.0453 O   0  5  0  0  0  0  0  0  0  0  0  0
  1  2  1  0  0  0  0
  1 36  1  0  0  0  0
  1 37  1  0  0  0  0
  1 38  1  0  0  0  0
  2  7  2  0  0  0  0
  2  3  1  0  0  0  0
  3  4  2  0  0  0  0
  3 39  1  0  0  0  0
  4  5  1  0  0  0  0
  4 40  1  0  0  0  0
  5  6  2  0  0  0  0
  5 35  1  0  0  0  0
  6  7  1  0  0  0  0
  6  8  1  0  0  0  0
  7 41  1  0  0  0  0
  8 12  1  0  0  0  0
  8  9  2  0  0  0  0
  9 10  1  0  0  0  0
  9 42  1  0  0  0  0
 10 11  1  0  0  0  0
 11 12  2  0  0  0  0
 11 19  1  0  0  0  0
 12 13  1  0  0  0  0
 13 14  2  0  0  0  0
 13 15  1  0  0  0  0
 15 16  1  0  0  0  0
 16 17  1  0  0  0  0
 16 18  1  0  0  0  0
 16 43  1  0  0  0  0
 17 44  1  0  0  0  0
 17 45  1  0  0  0  0
 17 46  1  0  0  0  0
 18 47  1  0  0  0  0
 18 48  1  0  0  0  0
 18 49  1  0  0  0  0
 19 20  1  0  0  0  0
 19 50  1  0  0  0  0
 20 21  2  0  0  0  0
 20 22  1  0  0  0  0
 22 23  1  0  0  0  0
 22 31  1  0  0  0  0
 22 24  1  0  0  0  0
 24 25  1  0  0  0  0
 24 30  1  0  0  0  0
 24 26  1  0  0  0  0
 26 27  1  0  0  0  0
 26 51  1  0  0  0  0
 26 52  1  0  0  0  0
 27 28  1  0  0  0  0
 27 53  1  0  0  0  0
 27 54  1  0  0  0  0
 28 29  1  0  0  0  0
 28 30  1  0  0  0  0
 28 31  1  0  0  0  0
 30 55  1  0  0  0  0
 30 56  1  0  0  0  0
 31 32  1  0  0  0  0
 31 33  1  0  0  0  0
 33 34  2  0  0  0  0
 33 60  1  0  0  0  0
 35 57  1  0  0  0  0
 35 58  1  0  0  0  0
 35 59  1  0  0  0  0
M  CHG  1  60  -1
M  END
$$$$
ZINC02764292
  -OEChem-08230709463D

 50 52  0     1  0  0  0  0  0999 V2000
    2.4903    1.0410   -0.0161 C   0  0  0  0  0  0  0  0  0  0  0  0
    1.1777    1.7811    0.0004 C   0  0  0  0  0  0  0  0  0  0  0  0
   -0.0126    1.0758    0.0080 C   0  0  0  0  0  0  0  0  0  0  0  0
   -1.2212    1.7483    0.0173 C   0  0  0  0  0  0  0  0  0  0  0  0
   -1.2461    3.1282    0.0298 C   0  0  0  0  0  0  0  0  0  0  0  0
   -0.0501    3.8442    0.0223 C   0  0  0  0  0  0  0  0  0  0  0  0
    1.1653    3.1608    0.0074 C   0  0  0  0  0  0  0  0  0  0  0  0
   -0.0702    5.3264    0.0294 C   0  0  0  0  0  0  0  0  0  0  0  0
    0.6717    6.0443    0.9108 C   0  0  0  0  0  0  0  0  0  0  0  0
    0.2844    7.7314    0.4935 S   0  0  0  0  0  0  0  0  0  0  0  0
   -0.8253    7.4649   -0.8080 C   0  0  0  0  0  0  0  0  0  0  0  0
   -0.8791    6.0810   -0.9091 C   0  0  0  0  0  0  0  0  0  0  0  0
   -1.7150    5.4166   -1.9090 C   0  0  0  0  0  0  0  0  0  0  0  0
   -2.8661    5.1261   -1.6436 O   0  0  0  0  0  0  0  0  0  0  0  0
   -1.2093    5.1260   -3.1254 O   0  0  0  0  0  0  0  0  0  0  0  0
   -2.0958    4.4664   -4.0674 C   0  0  0  0  0  0  0  0  0  0  0  0
   -1.4953    8.4078   -1.5711 N   0  0  0  0  0  0  0  0  0  0  0  0
   -1.3138    9.7215   -1.3310 C   0  0  0  0  0  0  0  0  0  0  0  0
   -0.5639   10.0784   -0.4472 O   0  0  0  0  0  0  0  0  0  0  0  0
   -2.0425   10.7469   -2.1608 C   0  0  1  0  0  0  0  0  0  0  0  0
   -1.7655   10.6299   -3.2085 H   0  0  0  0  0  0  0  0  0  0  0  0
   -3.5517   10.5482   -2.0071 C   0  0  0  0  0  0  0  0  0  0  0  0
   -3.9406   10.7124   -0.5365 C   0  0  0  0  0  0  0  0  0  0  0  0
   -3.5601   12.1163   -0.0621 C   0  0  0  0  0  0  0  0  0  0  0  0
   -2.0508   12.3150   -0.2158 C   0  0  0  0  0  0  0  0  0  0  0  0
   -1.6620   12.1508   -1.6864 C   0  0  1  0  0  0  0  0  0  0  0  0
   -2.1890   12.8924   -2.2866 H   0  0  0  0  0  0  0  0  0  0  0  0
   -0.1754   12.3465   -1.8378 C   0  0  0  0  0  0  0  0  0  0  0  0
    0.5094   11.4545   -2.2798 O   0  0  0  0  0  0  0  0  0  0  0  0
    2.7970    0.8681   -1.0477 H   0  0  0  0  0  0  0  0  0  0  0  0
    3.2488    1.6350    0.4937 H   0  0  0  0  0  0  0  0  0  0  0  0
    2.3746    0.0846    0.4937 H   0  0  0  0  0  0  0  0  0  0  0  0
    0.0021   -0.0041    0.0020 H   0  0  0  0  0  0  0  0  0  0  0  0
   -2.1472    1.1925    0.0187 H   0  0  0  0  0  0  0  0  0  0  0  0
   -2.1904    3.6522    0.0409 H   0  0  0  0  0  0  0  0  0  0  0  0
    2.0950    3.7103    0.0019 H   0  0  0  0  0  0  0  0  0  0  0  0
    1.3367    5.6800    1.6798 H   0  0  0  0  0  0  0  0  0  0  0  0
   -2.4241    3.5139   -3.6515 H   0  0  0  0  0  0  0  0  0  0  0  0
   -2.9632    5.0994   -4.2544 H   0  0  0  0  0  0  0  0  0  0  0  0
   -1.5656    4.2908   -5.0034 H   0  0  0  0  0  0  0  0  0  0  0  0
   -2.0951    8.1222   -2.2780 H   0  0  0  0  0  0  0  0  0  0  0  0
   -4.0788   11.2898   -2.6073 H   0  0  0  0  0  0  0  0  0  0  0  0
   -3.8228    9.5480   -2.3451 H   0  0  0  0  0  0  0  0  0  0  0  0
   -3.4135    9.9708    0.0637 H   0  0  0  0  0  0  0  0  0  0  0  0
   -5.0158   10.5709   -0.4270 H   0  0  0  0  0  0  0  0  0  0  0  0
   -3.8371   12.2333    0.9856 H   0  0  0  0  0  0  0  0  0  0  0  0
   -4.0871   12.8580   -0.6623 H   0  0  0  0  0  0  0  0  0  0  0  0
   -1.5237   11.5734    0.3844 H   0  0  0  0  0  0  0  0  0  0  0  0
   -1.7797   13.3152    0.1222 H   0  0  0  0  0  0  0  0  0  0  0  0
    0.3879   13.5116   -1.4816 O   0  5  0  0  0  0  0  0  0  0  0  0
  1  2  1  0  0  0  0
  1 30  1  0  0  0  0
  1 31  1  0  0  0  0
  1 32  1  0  0  0  0
  2  7  2  0  0  0  0
  2  3  1  0  0  0  0
  3  4  2  0  0  0  0
  3 33  1  0  0  0  0
  4  5  1  0  0  0  0
  4 34  1  0  0  0  0
  5  6  2  0  0  0  0
  5 35  1  0  0  0  0
  6  7  1  0  0  0  0
  6  8  1  0  0  0  0
  7 36  1  0  0  0  0
  8 12  1  0  0  0  0
  8  9  2  0  0  0  0
  9 10  1  0  0  0  0
  9 37  1  0  0  0  0
 10 11  1  0  0  0  0
 11 12  2  0  0  0  0
 11 17  1  0  0  0  0
 12 13  1  0  0  0  0
 13 14  2  0  0  0  0
 13 15  1  0  0  0  0
 15 16  1  0  0  0  0
 16 38  1  0  0  0  0
 16 39  1  0  0  0  0
 16 40  1  0  0  0  0
 17 18  1  0  0  0  0
 17 41  1  0  0  0  0
 18 19  2  0  0  0  0
 18 20  1  0  0  0  0
 20 21  1  0  0  0  0
 20 26  1  0  0  0  0
 20 22  1  0  0  0  0
 22 23  1  0  0  0  0
 22 42  1  0  0  0  0
 22 43  1  0  0  0  0
 23 24  1  0  0  0  0
 23 44  1  0  0  0  0
 23 45  1  0  0  0  0
 24 25  1  0  0  0  0
 24 46  1  0  0  0  0
 24 47  1  0  0  0  0
 25 26  1  0  0  0  0
 25 48  1  0  0  0  0
 25 49  1  0  0  0  0
 26 27  1  0  0  0  0
 26 28  1  0  0  0  0
 28 29  2  0  0  0  0
 28 50  1  0  0  0  0
M  CHG  1  50  -1
M  END
$$$$
ZINC02764293
  -OEChem-08230709463D

 50 52  0     1  0  0  0  0  0999 V2000
    3.7103   -0.7282   -0.0378 C   0  0  0  0  0  0  0  0  0  0  0  0
    2.4011    0.0179   -0.0208 C   0  0  0  0  0  0  0  0  0  0  0  0
    1.2076   -0.6820   -0.0131 C   0  0  0  0  0  0  0  0  0  0  0  0
    0.0021   -0.0041    0.0020 C   0  0  0  0  0  0  0  0  0  0  0  0
   -0.0166    1.3759    0.0096 C   0  0  0  0  0  0  0  0  0  0  0  0
    1.1826    2.0866    0.0020 C   0  0  0  0  0  0  0  0  0  0  0  0
    2.3949    1.3976   -0.0133 C   0  0  0  0  0  0  0  0  0  0  0  0
    1.1693    3.5688    0.0106 C   0  0  0  0  0  0  0  0  0  0  0  0
    1.9099    4.2824    0.8964 C   0  0  0  0  0  0  0  0  0  0  0  0
    1.5349    5.9717    0.4768 S   0  0  0  0  0  0  0  0  0  0  0  0
    0.4242    5.7115   -0.8251 C   0  0  0  0  0  0  0  0  0  0  0  0
    0.3594    4.3279   -0.9234 C   0  0  0  0  0  0  0  0  0  0  0  0
   -0.4847    3.6682   -1.9196 C   0  0  0  0  0  0  0  0  0  0  0  0
   -1.6358    3.3831   -1.6487 O   0  0  0  0  0  0  0  0  0  0  0  0
    0.0136    3.3760   -3.1387 O   0  0  0  0  0  0  0  0  0  0  0  0
   -0.8807    2.7213   -4.0767 C   0  0  0  0  0  0  0  0  0  0  0  0
   -0.2416    6.6581   -1.5872 N   0  0  0  0  0  0  0  0  0  0  0  0
   -0.0536    7.9708   -1.3462 C   0  0  0  0  0  0  0  0  0  0  0  0
    0.6983    8.3235   -0.4625 O   0  0  0  0  0  0  0  0  0  0  0  0
   -0.7778    9.0002   -2.1750 C   0  0  2  0  0  0  0  0  0  0  0  0
   -1.8536    8.8638   -2.0651 H   0  0  0  0  0  0  0  0  0  0  0  0
   -0.3904    8.8352   -3.6459 C   0  0  0  0  0  0  0  0  0  0  0  0
   -1.1256    9.8804   -4.4873 C   0  0  0  0  0  0  0  0  0  0  0  0
   -0.7382   11.2821   -4.0120 C   0  0  0  0  0  0  0  0  0  0  0  0
   -1.1256   11.4472   -2.5411 C   0  0  0  0  0  0  0  0  0  0  0  0
   -0.3903   10.4020   -1.6997 C   0  0  1  0  0  0  0  0  0  0  0  0
    0.6855   10.5384   -1.8096 H   0  0  0  0  0  0  0  0  0  0  0  0
   -0.7719   10.5645   -0.2509 C   0  0  0  0  0  0  0  0  0  0  0  0
   -1.2996    9.6528    0.3408 O   0  0  0  0  0  0  0  0  0  0  0  0
    4.0160   -0.9022   -1.0695 H   0  0  0  0  0  0  0  0  0  0  0  0
    4.4716   -0.1377    0.4720 H   0  0  0  0  0  0  0  0  0  0  0  0
    3.5904   -1.6842    0.4718 H   0  0  0  0  0  0  0  0  0  0  0  0
    1.2174   -1.7619   -0.0194 H   0  0  0  0  0  0  0  0  0  0  0  0
   -0.9264   -0.5557    0.0076 H   0  0  0  0  0  0  0  0  0  0  0  0
   -0.9586    1.9043    0.0169 H   0  0  0  0  0  0  0  0  0  0  0  0
    3.3271    1.9429   -0.0196 H   0  0  0  0  0  0  0  0  0  0  0  0
    2.5692    3.9143    1.6685 H   0  0  0  0  0  0  0  0  0  0  0  0
   -0.3560    2.5437   -5.0155 H   0  0  0  0  0  0  0  0  0  0  0  0
   -1.2115    1.7700   -3.6598 H   0  0  0  0  0  0  0  0  0  0  0  0
   -1.7460    3.3586   -4.2590 H   0  0  0  0  0  0  0  0  0  0  0  0
   -0.8431    6.3760   -2.2940 H   0  0  0  0  0  0  0  0  0  0  0  0
    0.6854    8.9717   -3.7558 H   0  0  0  0  0  0  0  0  0  0  0  0
   -0.6665    7.8366   -3.9845 H   0  0  0  0  0  0  0  0  0  0  0  0
   -0.8496    9.7628   -5.5352 H   0  0  0  0  0  0  0  0  0  0  0  0
   -2.2015    9.7439   -4.3774 H   0  0  0  0  0  0  0  0  0  0  0  0
    0.3377   11.4186   -4.1219 H   0  0  0  0  0  0  0  0  0  0  0  0
   -1.2620   12.0267   -4.6114 H   0  0  0  0  0  0  0  0  0  0  0  0
   -0.8495   12.4458   -2.2025 H   0  0  0  0  0  0  0  0  0  0  0  0
   -2.2014   11.3107   -2.4312 H   0  0  0  0  0  0  0  0  0  0  0  0
   -0.5255   11.7222    0.3822 O   0  5  0  0  0  0  0  0  0  0  0  0
  1  2  1  0  0  0  0
  1 30  1  0  0  0  0
  1 31  1  0  0  0  0
  1 32  1  0  0  0  0
  2  7  2  0  0  0  0
  2  3  1  0  0  0  0
  3  4  2  0  0  0  0
  3 33  1  0  0  0  0
  4  5  1  0  0  0  0
  4 34  1  0  0  0  0
  5  6  2  0  0  0  0
  5 35  1  0  0  0  0
  6  7  1  0  0  0  0
  6  8  1  0  0  0  0
  7 36  1  0  0  0  0
  8 12  1  0  0  0  0
  8  9  2  0  0  0  0
  9 10  1  0  0  0  0
  9 37  1  0  0  0  0
 10 11  1  0  0  0  0
 11 12  2  0  0  0  0
 11 17  1  0  0  0  0
 12 13  1  0  0  0  0
 13 14  2  0  0  0  0
 13 15  1  0  0  0  0
 15 16  1  0  0  0  0
 16 38  1  0  0  0  0
 16 39  1  0  0  0  0
 16 40  1  0  0  0  0
 17 18  1  0  0  0  0
 17 41  1  0  0  0  0
 18 19  2  0  0  0  0
 18 20  1  0  0  0  0
 20 21  1  0  0  0  0
 20 26  1  0  0  0  0
 20 22  1  0  0  0  0
 22 23  1  0  0  0  0
 22 42  1  0  0  0  0
 22 43  1  0  0  0  0
 23 24  1  0  0  0  0
 23 44  1  0  0  0  0
 23 45  1  0  0  0  0
 24 25  1  0  0  0  0
 24 46  1  0  0  0  0
 24 47  1  0  0  0  0
 25 26  1  0  0  0  0
 25 48  1  0  0  0  0
 25 49  1  0  0  0  0
 26 27  1  0  0  0  0
 26 28  1  0  0  0  0
 28 29  2  0  0  0  0
 28 50  1  0  0  0  0
M  CHG  1  50  -1
M  END
$$$$
ZINC02764294
  -OEChem-08230709463D

 50 52  0     1  0  0  0  0  0999 V2000
    4.2255   -7.8972   -6.1073 C   0  0  0  0  0  0  0  0  0  0  0  0
    4.8502   -6.5946   -5.6781 C   0  0  0  0  0  0  0  0  0  0  0  0
    6.2189   -6.4192   -5.7783 C   0  0  0  0  0  0  0  0  0  0  0  0
    6.7994   -5.2266   -5.3859 C   0  0  0  0  0  0  0  0  0  0  0  0
    6.0151   -4.2040   -4.8918 C   0  0  0  0  0  0  0  0  0  0  0  0
    4.6355   -4.3750   -4.7885 C   0  0  0  0  0  0  0  0  0  0  0  0
    4.0567   -5.5816   -5.1803 C   0  0  0  0  0  0  0  0  0  0  0  0
    3.7878   -3.2805   -4.2587 C   0  0  0  0  0  0  0  0  0  0  0  0
    2.6765   -2.8593   -4.9146 C   0  0  0  0  0  0  0  0  0  0  0  0
    2.0512   -1.5608   -3.8692 S   0  0  0  0  0  0  0  0  0  0  0  0
    3.2413   -1.5961   -2.6128 C   0  0  0  0  0  0  0  0  0  0  0  0
    4.1083   -2.6028   -3.0167 C   0  0  0  0  0  0  0  0  0  0  0  0
    5.2848   -2.9652   -2.2263 C   0  0  0  0  0  0  0  0  0  0  0  0
    5.2002   -3.8231   -1.3679 O   0  0  0  0  0  0  0  0  0  0  0  0
    6.4634   -2.3480   -2.4492 O   0  0  0  0  0  0  0  0  0  0  0  0
    7.5881   -2.7582   -1.6276 C   0  0  0  0  0  0  0  0  0  0  0  0
    3.3147   -0.8046   -1.4777 N   0  0  0  0  0  0  0  0  0  0  0  0
    2.3768    0.1362   -1.2504 C   0  0  0  0  0  0  0  0  0  0  0  0
    1.4686    0.2900   -2.0393 O   0  0  0  0  0  0  0  0  0  0  0  0
    2.4566    0.9969   -0.0160 C   0  0  1  0  0  0  0  0  0  0  0  0
    2.4159    0.3648    0.8710 H   0  0  0  0  0  0  0  0  0  0  0  0
    3.7711    1.7799   -0.0244 C   0  0  0  0  0  0  0  0  0  0  0  0
    3.8521    2.6538    1.2288 C   0  0  0  0  0  0  0  0  0  0  0  0
    2.6759    3.6321    1.2453 C   0  0  0  0  0  0  0  0  0  0  0  0
    1.3614    2.8492    1.2537 C   0  0  0  0  0  0  0  0  0  0  0  0
    1.2804    1.9752    0.0004 C   0  0  2  0  0  0  0  0  0  0  0  0
    1.3211    2.6074   -0.8866 H   0  0  0  0  0  0  0  0  0  0  0  0
   -0.0143    1.2041    0.0087 C   0  0  0  0  0  0  0  0  0  0  0  0
    0.0021   -0.0041    0.0020 O   0  0  0  0  0  0  0  0  0  0  0  0
    4.1920   -8.5810   -5.2591 H   0  0  0  0  0  0  0  0  0  0  0  0
    3.2129   -7.7137   -6.4663 H   0  0  0  0  0  0  0  0  0  0  0  0
    4.8200   -8.3392   -6.9069 H   0  0  0  0  0  0  0  0  0  0  0  0
    6.8365   -7.2165   -6.1647 H   0  0  0  0  0  0  0  0  0  0  0  0
    7.8684   -5.0955   -5.4661 H   0  0  0  0  0  0  0  0  0  0  0  0
    6.4695   -3.2734   -4.5854 H   0  0  0  0  0  0  0  0  0  0  0  0
    2.9889   -5.7214   -5.0980 H   0  0  0  0  0  0  0  0  0  0  0  0
    2.2696   -3.2241   -5.8462 H   0  0  0  0  0  0  0  0  0  0  0  0
    8.4717   -2.1853   -1.9089 H   0  0  0  0  0  0  0  0  0  0  0  0
    7.3565   -2.5769   -0.5780 H   0  0  0  0  0  0  0  0  0  0  0  0
    7.7804   -3.8204   -1.7790 H   0  0  0  0  0  0  0  0  0  0  0  0
    4.0412   -0.9277   -0.8468 H   0  0  0  0  0  0  0  0  0  0  0  0
    4.6091    1.0829   -0.0361 H   0  0  0  0  0  0  0  0  0  0  0  0
    3.8118    2.4121   -0.9114 H   0  0  0  0  0  0  0  0  0  0  0  0
    3.8114    2.0217    2.1159 H   0  0  0  0  0  0  0  0  0  0  0  0
    4.7886    3.2116    1.2229 H   0  0  0  0  0  0  0  0  0  0  0  0
    2.7336    4.2547    2.1382 H   0  0  0  0  0  0  0  0  0  0  0  0
    2.7166    4.2643    0.3583 H   0  0  0  0  0  0  0  0  0  0  0  0
    0.5235    3.5461    1.2654 H   0  0  0  0  0  0  0  0  0  0  0  0
    1.3207    2.2170    2.1407 H   0  0  0  0  0  0  0  0  0  0  0  0
   -1.1857    1.8593    0.0178 O   0  5  0  0  0  0  0  0  0  0  0  0
  1  2  1  0  0  0  0
  1 30  1  0  0  0  0
  1 31  1  0  0  0  0
  1 32  1  0  0  0  0
  2  7  2  0  0  0  0
  2  3  1  0  0  0  0
  3  4  2  0  0  0  0
  3 33  1  0  0  0  0
  4  5  1  0  0  0  0
  4 34  1  0  0  0  0
  5  6  2  0  0  0  0
  5 35  1  0  0  0  0
  6  7  1  0  0  0  0
  6  8  1  0  0  0  0
  7 36  1  0  0  0  0
  8 12  1  0  0  0  0
  8  9  2  0  0  0  0
  9 10  1  0  0  0  0
  9 37  1  0  0  0  0
 10 11  1  0  0  0  0
 11 12  2  0  0  0  0
 11 17  1  0  0  0  0
 12 13  1  0  0  0  0
 13 14  2  0  0  0  0
 13 15  1  0  0  0  0
 15 16  1  0  0  0  0
 16 38  1  0  0  0  0
 16 39  1  0  0  0  0
 16 40  1  0  0  0  0
 17 18  1  0  0  0  0
 17 41  1  0  0  0  0
 18 19  2  0  0  0  0
 18 20  1  0  0  0  0
 20 21  1  0  0  0  0
 20 26  1  0  0  0  0
 20 22  1  0  0  0  0
 22 23  1  0  0  0  0
 22 42  1  0  0  0  0
 22 43  1  0  0  0  0
 23 24  1  0  0  0  0
 23 44  1  0  0  0  0
 23 45  1  0  0  0  0
 24 25  1  0  0  0  0
 24 46  1  0  0  0  0
 24 47  1  0  0  0  0
 25 26  1  0  0  0  0
 25 48  1  0  0  0  0
 25 49  1  0  0  0  0
 26 27  1  0  0  0  0
 26 28  1  0  0  0  0
 28 29  2  0  0  0  0
 28 50  1  0  0  0  0
M  CHG  1  50  -1
M  END
$$$$
ZINC02764295
  -OEChem-08230709463D

 50 52  0     1  0  0  0  0  0999 V2000
   10.2692    3.3484    7.8668 C   0  0  0  0  0  0  0  0  0  0  0  0
   10.0113    2.9363    6.4403 C   0  0  0  0  0  0  0  0  0  0  0  0
   11.0741    2.6638    5.5975 C   0  0  0  0  0  0  0  0  0  0  0  0
   10.8452    2.2846    4.2872 C   0  0  0  0  0  0  0  0  0  0  0  0
    9.5535    2.1704    3.8146 C   0  0  0  0  0  0  0  0  0  0  0  0
    8.4787    2.4493    4.6575 C   0  0  0  0  0  0  0  0  0  0  0  0
    8.7157    2.8311    5.9775 C   0  0  0  0  0  0  0  0  0  0  0  0
    7.0892    2.3344    4.1543 C   0  0  0  0  0  0  0  0  0  0  0  0
    6.1436    1.6315    4.8283 C   0  0  0  0  0  0  0  0  0  0  0  0
    4.6925    1.8198    3.8139 S   0  0  0  0  0  0  0  0  0  0  0  0
    5.3478    2.7932    2.5413 C   0  0  0  0  0  0  0  0  0  0  0  0
    6.6732    2.9674    2.9170 C   0  0  0  0  0  0  0  0  0  0  0  0
    7.6042    3.7511    2.1052 C   0  0  0  0  0  0  0  0  0  0  0  0
    7.7255    4.9456    2.3014 O   0  0  0  0  0  0  0  0  0  0  0  0
    8.3282    3.1493    1.1391 O   0  0  0  0  0  0  0  0  0  0  0  0
    9.2319    3.9888    0.3730 C   0  0  0  0  0  0  0  0  0  0  0  0
    4.7022    3.2862    1.4186 N   0  0  0  0  0  0  0  0  0  0  0  0
    3.3982    3.0119    1.2163 C   0  0  0  0  0  0  0  0  0  0  0  0
    2.7899    2.3338    2.0168 O   0  0  0  0  0  0  0  0  0  0  0  0
    2.6961    3.5480   -0.0046 C   0  0  2  0  0  0  0  0  0  0  0  0
    3.1869    3.1698   -0.9014 H   0  0  0  0  0  0  0  0  0  0  0  0
    2.7554    5.0768    0.0030 C   0  0  0  0  0  0  0  0  0  0  0  0
    2.0665    5.6077    1.2618 C   0  0  0  0  0  0  0  0  0  0  0  0
    0.6054    5.1539    1.2733 C   0  0  0  0  0  0  0  0  0  0  0  0
    0.5460    3.6251    1.2656 C   0  0  0  0  0  0  0  0  0  0  0  0
    1.2350    3.0943    0.0069 C   0  0  2  0  0  0  0  0  0  0  0  0
    0.7272    3.4820   -0.8762 H   0  0  0  0  0  0  0  0  0  0  0  0
    1.1765    1.5884   -0.0006 C   0  0  0  0  0  0  0  0  0  0  0  0
    2.1986    0.9442   -0.0139 O   0  0  0  0  0  0  0  0  0  0  0  0
   10.3082    2.4619    8.4997 H   0  0  0  0  0  0  0  0  0  0  0  0
   11.2196    3.8789    7.9255 H   0  0  0  0  0  0  0  0  0  0  0  0
    9.4663    4.0026    8.2068 H   0  0  0  0  0  0  0  0  0  0  0  0
   12.0865    2.7472    5.9642 H   0  0  0  0  0  0  0  0  0  0  0  0
   11.6787    2.0728    3.6339 H   0  0  0  0  0  0  0  0  0  0  0  0
    9.3758    1.8699    2.7926 H   0  0  0  0  0  0  0  0  0  0  0  0
    7.8869    3.0437    6.6364 H   0  0  0  0  0  0  0  0  0  0  0  0
    6.2458    1.0915    5.7580 H   0  0  0  0  0  0  0  0  0  0  0  0
    8.6627    4.7698   -0.1312 H   0  0  0  0  0  0  0  0  0  0  0  0
    9.9601    4.4452    1.0434 H   0  0  0  0  0  0  0  0  0  0  0  0
    9.7512    3.3816   -0.3685 H   0  0  0  0  0  0  0  0  0  0  0  0
    5.1887    3.8286    0.7784 H   0  0  0  0  0  0  0  0  0  0  0  0
    2.2476    5.4646   -0.8801 H   0  0  0  0  0  0  0  0  0  0  0  0
    3.7964    5.4001   -0.0052 H   0  0  0  0  0  0  0  0  0  0  0  0
    2.1088    6.6968    1.2672 H   0  0  0  0  0  0  0  0  0  0  0  0
    2.5743    5.2199    2.1449 H   0  0  0  0  0  0  0  0  0  0  0  0
    0.0975    5.5417    0.3902 H   0  0  0  0  0  0  0  0  0  0  0  0
    0.1145    5.5321    2.1700 H   0  0  0  0  0  0  0  0  0  0  0  0
   -0.4949    3.3019    1.2738 H   0  0  0  0  0  0  0  0  0  0  0  0
    1.0538    3.2374    2.1487 H   0  0  0  0  0  0  0  0  0  0  0  0
   -0.0110    0.9628    0.0073 O   0  5  0  0  0  0  0  0  0  0  0  0
  1  2  1  0  0  0  0
  1 30  1  0  0  0  0
  1 31  1  0  0  0  0
  1 32  1  0  0  0  0
  2  7  2  0  0  0  0
  2  3  1  0  0  0  0
  3  4  2  0  0  0  0
  3 33  1  0  0  0  0
  4  5  1  0  0  0  0
  4 34  1  0  0  0  0
  5  6  2  0  0  0  0
  5 35  1  0  0  0  0
  6  7  1  0  0  0  0
  6  8  1  0  0  0  0
  7 36  1  0  0  0  0
  8 12  1  0  0  0  0
  8  9  2  0  0  0  0
  9 10  1  0  0  0  0
  9 37  1  0  0  0  0
 10 11  1  0  0  0  0
 11 12  2  0  0  0  0
 11 17  1  0  0  0  0
 12 13  1  0  0  0  0
 13 14  2  0  0  0  0
 13 15  1  0  0  0  0
 15 16  1  0  0  0  0
 16 38  1  0  0  0  0
 16 39  1  0  0  0  0
 16 40  1  0  0  0  0
 17 18  1  0  0  0  0
 17 41  1  0  0  0  0
 18 19  2  0  0  0  0
 18 20  1  0  0  0  0
 20 21  1  0  0  0  0
 20 26  1  0  0  0  0
 20 22  1  0  0  0  0
 22 23  1  0  0  0  0
 22 42  1  0  0  0  0
 22 43  1  0  0  0  0
 23 24  1  0  0  0  0
 23 44  1  0  0  0  0
 23 45  1  0  0  0  0
 24 25  1  0  0  0  0
 24 46  1  0  0  0  0
 24 47  1  0  0  0  0
 25 26  1  0  0  0  0
 25 48  1  0  0  0  0
 25 49  1  0  0  0  0
 26 27  1  0  0  0  0
 26 28  1  0  0  0  0
 28 29  2  0  0  0  0
 28 50  1  0  0  0  0
M  CHG  1  50  -1
M  END
$$$$
ZINC02764345
  -OEChem-08230709463D

 51 54  0     1  0  0  0  0  0999 V2000
   -7.4883   -2.6282    9.7873 C   0  0  0  0  0  0  0  0  0  0  0  0
   -7.6516   -1.9619    8.4455 C   0  0  0  0  0  0  0  0  0  0  0  0
   -8.8867   -1.9589    7.8219 C   0  0  0  0  0  0  0  0  0  0  0  0
   -9.0443   -1.3492    6.5904 C   0  0  0  0  0  0  0  0  0  0  0  0
   -7.9701   -0.7350    5.9790 C   0  0  0  0  0  0  0  0  0  0  0  0
   -6.7221   -0.7394    6.6000 C   0  0  0  0  0  0  0  0  0  0  0  0
   -6.5694   -1.3556    7.8415 C   0  0  0  0  0  0  0  0  0  0  0  0
   -5.5633   -0.0864    5.9459 C   0  0  0  0  0  0  0  0  0  0  0  0
   -4.7777    0.8000    6.6090 C   0  0  0  0  0  0  0  0  0  0  0  0
   -3.5636    1.2623    5.3914 S   0  0  0  0  0  0  0  0  0  0  0  0
   -4.1084    0.3060    4.0554 C   0  0  0  0  0  0  0  0  0  0  0  0
   -5.2133   -0.3628    4.5654 C   0  0  0  0  0  0  0  0  0  0  0  0
   -5.9867   -1.2997    3.7506 C   0  0  0  0  0  0  0  0  0  0  0  0
   -5.6855   -2.4781    3.7276 O   0  0  0  0  0  0  0  0  0  0  0  0
   -7.0339   -0.8569    3.0246 O   0  0  0  0  0  0  0  0  0  0  0  0
   -7.7556   -1.8425    2.2397 C   0  0  0  0  0  0  0  0  0  0  0  0
   -3.5674    0.2230    2.7824 N   0  0  0  0  0  0  0  0  0  0  0  0
   -2.4808    0.9537    2.4629 C   0  0  0  0  0  0  0  0  0  0  0  0
   -1.9766    1.6838    3.2897 O   0  0  0  0  0  0  0  0  0  0  0  0
   -1.8925    0.8634    1.0785 C   0  0  2  0  0  0  0  0  0  0  0  0
   -1.5657   -0.1552    0.8692 H   0  0  0  0  0  0  0  0  0  0  0  0
   -0.6843    1.8872    0.9282 C   0  0  1  0  0  0  0  0  0  0  0  0
    0.0039    1.9595    1.7704 H   0  0  0  0  0  0  0  0  0  0  0  0
   -0.0461    1.5085   -0.4431 C   0  0  0  0  0  0  0  0  0  0  0  0
   -1.0861    1.9523   -1.4971 C   0  0  0  0  0  0  0  0  0  0  0  0
   -2.2577    2.5569   -0.6646 C   0  0  2  0  0  0  0  0  0  0  0  0
   -2.9310    3.2233   -1.2037 H   0  0  0  0  0  0  0  0  0  0  0  0
   -1.4656    3.1914    0.5327 C   0  0  0  0  0  0  0  0  0  0  0  0
   -2.9233    1.3262    0.0236 C   0  0  1  0  0  0  0  0  0  0  0  0
   -3.8557    1.6190    0.5064 H   0  0  0  0  0  0  0  0  0  0  0  0
   -3.1723    0.2325   -0.9827 C   0  0  0  0  0  0  0  0  0  0  0  0
   -2.3854   -0.6778   -1.0927 O   0  0  0  0  0  0  0  0  0  0  0  0
   -7.6833   -1.9044   10.5786 H   0  0  0  0  0  0  0  0  0  0  0  0
   -8.1928   -3.4558    9.8701 H   0  0  0  0  0  0  0  0  0  0  0  0
   -6.4706   -3.0065    9.8836 H   0  0  0  0  0  0  0  0  0  0  0  0
   -9.7312   -2.4341    8.2988 H   0  0  0  0  0  0  0  0  0  0  0  0
  -10.0106   -1.3503    6.1082 H   0  0  0  0  0  0  0  0  0  0  0  0
   -8.0953   -0.2554    5.0194 H   0  0  0  0  0  0  0  0  0  0  0  0
   -5.6058   -1.3585    8.3292 H   0  0  0  0  0  0  0  0  0  0  0  0
   -4.8651    1.1395    7.6306 H   0  0  0  0  0  0  0  0  0  0  0  0
   -8.1608   -2.6081    2.9014 H   0  0  0  0  0  0  0  0  0  0  0  0
   -8.5713   -1.3552    1.7056 H   0  0  0  0  0  0  0  0  0  0  0  0
   -7.0766   -2.3042    1.5228 H   0  0  0  0  0  0  0  0  0  0  0  0
   -3.9706   -0.3610    2.1211 H   0  0  0  0  0  0  0  0  0  0  0  0
    0.1187    0.4326   -0.5014 H   0  0  0  0  0  0  0  0  0  0  0  0
    0.8924    2.0442   -0.5863 H   0  0  0  0  0  0  0  0  0  0  0  0
   -0.6596    2.7076   -2.1572 H   0  0  0  0  0  0  0  0  0  0  0  0
   -1.4311    1.0949   -2.0749 H   0  0  0  0  0  0  0  0  0  0  0  0
   -0.7940    3.9845    0.2039 H   0  0  0  0  0  0  0  0  0  0  0  0
   -2.1292    3.5280    1.3292 H   0  0  0  0  0  0  0  0  0  0  0  0
   -4.2682    0.2696   -1.7569 O   0  5  0  0  0  0  0  0  0  0  0  0
  1  2  1  0  0  0  0
  1 33  1  0  0  0  0
  1 34  1  0  0  0  0
  1 35  1  0  0  0  0
  2  7  2  0  0  0  0
  2  3  1  0  0  0  0
  3  4  2  0  0  0  0
  3 36  1  0  0  0  0
  4  5  1  0  0  0  0
  4 37  1  0  0  0  0
  5  6  2  0  0  0  0
  5 38  1  0  0  0  0
  6  7  1  0  0  0  0
  6  8  1  0  0  0  0
  7 39  1  0  0  0  0
  8 12  1  0  0  0  0
  8  9  2  0  0  0  0
  9 10  1  0  0  0  0
  9 40  1  0  0  0  0
 10 11  1  0  0  0  0
 11 12  2  0  0  0  0
 11 17  1  0  0  0  0
 12 13  1  0  0  0  0
 13 14  2  0  0  0  0
 13 15  1  0  0  0  0
 15 16  1  0  0  0  0
 16 41  1  0  0  0  0
 16 42  1  0  0  0  0
 16 43  1  0  0  0  0
 17 18  1  0  0  0  0
 17 44  1  0  0  0  0
 18 19  2  0  0  0  0
 18 20  1  0  0  0  0
 20 21  1  0  0  0  0
 20 29  1  0  0  0  0
 20 22  1  0  0  0  0
 22 23  1  0  0  0  0
 22 28  1  0  0  0  0
 22 24  1  0  0  0  0
 24 25  1  0  0  0  0
 24 45  1  0  0  0  0
 24 46  1  0  0  0  0
 25 26  1  0  0  0  0
 25 47  1  0  0  0  0
 25 48  1  0  0  0  0
 26 27  1  0  0  0  0
 26 28  1  0  0  0  0
 26 29  1  0  0  0  0
 28 49  1  0  0  0  0
 28 50  1  0  0  0  0
 29 30  1  0  0  0  0
 29 31  1  0  0  0  0
 31 32  2  0  0  0  0
 31 51  1  0  0  0  0
M  CHG  1  51  -1
M  END
$$$$
ZINC02765054
  -OEChem-08230709463D

 58 61  0     1  0  0  0  0  0999 V2000
   -6.1585   -0.5794   -4.3653 C   0  0  0  0  0  0  0  0  0  0  0  0
   -5.9794   -1.4755   -3.1381 C   0  0  0  0  0  0  0  0  0  0  0  0
   -5.4070   -0.7002   -2.0521 O   0  0  0  0  0  0  0  0  0  0  0  0
   -5.1840   -1.3467   -0.8895 C   0  0  0  0  0  0  0  0  0  0  0  0
   -5.4607   -2.5267   -0.7869 O   0  0  0  0  0  0  0  0  0  0  0  0
   -4.6086   -0.6279    0.2493 C   0  0  0  0  0  0  0  0  0  0  0  0
   -3.1636   -0.5602    0.4479 C   0  0  0  0  0  0  0  0  0  0  0  0
   -2.7779    0.1325    1.5313 C   0  0  0  0  0  0  0  0  0  0  0  0
   -4.2766    0.6906    2.2902 S   0  0  0  0  0  0  0  0  0  0  0  0
   -5.4176    0.0123    1.1768 C   0  0  0  0  0  0  0  0  0  0  0  0
   -6.8012    0.0902    1.2057 N   0  0  0  0  0  0  0  0  0  0  0  0
   -7.4176    0.7634    2.1973 C   0  0  0  0  0  0  0  0  0  0  0  0
   -6.7617    1.3010    3.0643 O   0  0  0  0  0  0  0  0  0  0  0  0
   -8.9219    0.8481    2.2288 C   0  0  1  0  0  0  0  0  0  0  0  0
   -9.3598   -0.1488    2.2795 H   0  0  0  0  0  0  0  0  0  0  0  0
   -9.3977    1.7189    3.4350 C   0  0  1  0  0  0  0  0  0  0  0  0
   -8.9160    1.5215    4.3927 H   0  0  0  0  0  0  0  0  0  0  0  0
   -9.2331    3.1616    2.8207 C   0  0  0  0  0  0  0  0  0  0  0  0
  -10.1779    2.8510    1.6025 C   0  0  1  0  0  0  0  0  0  0  0  0
  -10.3834    3.6761    0.9206 H   0  0  0  0  0  0  0  0  0  0  0  0
   -9.4501    1.6121    0.9900 C   0  0  2  0  0  0  0  0  0  0  0  0
   -8.6235    1.9290    0.3541 H   0  0  0  0  0  0  0  0  0  0  0  0
  -10.4197    0.7581    0.2144 C   0  0  0  0  0  0  0  0  0  0  0  0
  -10.6799   -0.3586    0.5956 O   0  0  0  0  0  0  0  0  0  0  0  0
  -11.3880    2.2512    2.3289 C   0  0  0  0  0  0  0  0  0  0  0  0
  -10.9552    1.5907    3.3840 C   0  0  0  0  0  0  0  0  0  0  0  0
   -1.3729    0.3616    1.9689 C   0  0  0  0  0  0  0  0  0  0  0  0
   -0.7500    1.5914    1.2729 C   0  0  0  0  0  0  0  0  0  0  0  0
   -0.0127    1.0858    0.0080 C   0  0  0  0  0  0  0  0  0  0  0  0
   -0.7651    1.5989   -1.2226 C   0  0  0  0  0  0  0  0  0  0  0  0
   -2.1577    1.0649   -1.4037 C   0  0  0  0  0  0  0  0  0  0  0  0
   -2.1660   -0.4175   -1.7996 C   0  0  0  0  0  0  0  0  0  0  0  0
   -2.1804   -1.2224   -0.4979 C   0  0  0  0  0  0  0  0  0  0  0  0
   -6.5882   -1.1615   -5.1806 H   0  0  0  0  0  0  0  0  0  0  0  0
   -6.8252    0.2466   -4.1178 H   0  0  0  0  0  0  0  0  0  0  0  0
   -5.1896   -0.1851   -4.6717 H   0  0  0  0  0  0  0  0  0  0  0  0
   -5.3127   -2.3016   -3.3856 H   0  0  0  0  0  0  0  0  0  0  0  0
   -6.9483   -1.8699   -2.8317 H   0  0  0  0  0  0  0  0  0  0  0  0
   -7.3257   -0.3398    0.5123 H   0  0  0  0  0  0  0  0  0  0  0  0
   -8.2086    3.3695    2.5121 H   0  0  0  0  0  0  0  0  0  0  0  0
   -9.6324    3.9399    3.4710 H   0  0  0  0  0  0  0  0  0  0  0  0
  -12.4200    2.3529    2.0270 H   0  0  0  0  0  0  0  0  0  0  0  0
  -11.5723    1.0593    4.0934 H   0  0  0  0  0  0  0  0  0  0  0  0
   -1.3576    0.5184    3.0474 H   0  0  0  0  0  0  0  0  0  0  0  0
   -0.7781   -0.5202    1.7308 H   0  0  0  0  0  0  0  0  0  0  0  0
   -0.0426    2.0791    1.9437 H   0  0  0  0  0  0  0  0  0  0  0  0
   -1.5351    2.2920    0.9886 H   0  0  0  0  0  0  0  0  0  0  0  0
    0.0021   -0.0041    0.0020 H   0  0  0  0  0  0  0  0  0  0  0  0
    1.0083    1.4674    0.0003 H   0  0  0  0  0  0  0  0  0  0  0  0
   -0.8219    2.6856   -1.1592 H   0  0  0  0  0  0  0  0  0  0  0  0
   -0.1857    1.3406   -2.1090 H   0  0  0  0  0  0  0  0  0  0  0  0
   -2.7062    1.1841   -0.4693 H   0  0  0  0  0  0  0  0  0  0  0  0
   -2.6582    1.6401   -2.1826 H   0  0  0  0  0  0  0  0  0  0  0  0
   -3.0569   -0.6415   -2.3862 H   0  0  0  0  0  0  0  0  0  0  0  0
   -1.2707   -0.6546   -2.3744 H   0  0  0  0  0  0  0  0  0  0  0  0
   -2.4958   -2.2459   -0.7006 H   0  0  0  0  0  0  0  0  0  0  0  0
   -1.1850   -1.2235   -0.0539 H   0  0  0  0  0  0  0  0  0  0  0  0
  -10.9942    1.2378   -0.8998 O   0  5  0  0  0  0  0  0  0  0  0  0
  1  2  1  0  0  0  0
  1 34  1  0  0  0  0
  1 35  1  0  0  0  0
  1 36  1  0  0  0  0
  2  3  1  0  0  0  0
  2 37  1  0  0  0  0
  2 38  1  0  0  0  0
  3  4  1  0  0  0  0
  4  5  2  0  0  0  0
  4  6  1  0  0  0  0
  6 10  2  0  0  0  0
  6  7  1  0  0  0  0
  7 33  1  0  0  0  0
  7  8  2  0  0  0  0
  8  9  1  0  0  0  0
  8 27  1  0  0  0  0
  9 10  1  0  0  0  0
 10 11  1  0  0  0  0
 11 12  1  0  0  0  0
 11 39  1  0  0  0  0
 12 13  2  0  0  0  0
 12 14  1  0  0  0  0
 14 15  1  0  0  0  0
 14 21  1  0  0  0  0
 14 16  1  0  0  0  0
 16 17  1  0  0  0  0
 16 26  1  0  0  0  0
 16 18  1  0  0  0  0
 18 19  1  0  0  0  0
 18 40  1  0  0  0  0
 18 41  1  0  0  0  0
 19 20  1  0  0  0  0
 19 21  1  0  0  0  0
 19 25  1  0  0  0  0
 21 22  1  0  0  0  0
 21 23  1  0  0  0  0
 23 24  2  0  0  0  0
 23 58  1  0  0  0  0
 25 26  2  0  0  0  0
 25 42  1  0  0  0  0
 26 43  1  0  0  0  0
 27 28  1  0  0  0  0
 27 44  1  0  0  0  0
 27 45  1  0  0  0  0
 28 29  1  0  0  0  0
 28 46  1  0  0  0  0
 28 47  1  0  0  0  0
 29 30  1  0  0  0  0
 29 48  1  0  0  0  0
 29 49  1  0  0  0  0
 30 31  1  0  0  0  0
 30 50  1  0  0  0  0
 30 51  1  0  0  0  0
 31 32  1  0  0  0  0
 31 52  1  0  0  0  0
 31 53  1  0  0  0  0
 32 33  1  0  0  0  0
 32 54  1  0  0  0  0
 32 55  1  0  0  0  0
 33 56  1  0  0  0  0
 33 57  1  0  0  0  0
M  CHG  1  58  -1
M  END
$$$$
ZINC02765074
  -OEChem-08230709463D

 56 59  0     1  0  0  0  0  0999 V2000
    1.6730    5.5780    4.9532 C   0  0  0  0  0  0  0  0  0  0  0  0
    1.0155    6.2280    3.7341 C   0  0  0  0  0  0  0  0  0  0  0  0
    2.0691    7.0001    2.9375 C   0  0  0  0  0  0  0  0  0  0  0  0
   -0.0797    7.1904    4.1979 C   0  0  0  0  0  0  0  0  0  0  0  0
    0.3997    5.1434    2.8480 C   0  0  2  0  0  0  0  0  0  0  0  0
   -0.0646    5.6021    1.9750 H   0  0  0  0  0  0  0  0  0  0  0  0
   -0.6554    4.3688    3.6429 C   0  0  0  0  0  0  0  0  0  0  0  0
   -1.4472    3.4551    2.7058 C   0  0  0  0  0  0  0  0  0  0  0  0
   -0.4672    2.6081    1.9038 C   0  0  0  0  0  0  0  0  0  0  0  0
   -0.8322    1.3894    1.2067 C   0  0  0  0  0  0  0  0  0  0  0  0
    0.1579    0.7176    0.5242 C   0  0  0  0  0  0  0  0  0  0  0  0
    1.5604    1.6995    0.7918 S   0  0  0  0  0  0  0  0  0  0  0  0
    0.8333    2.9643    1.7946 C   0  0  0  0  0  0  0  0  0  0  0  0
    1.4942    4.1661    2.3946 C   0  0  0  0  0  0  0  0  0  0  0  0
   -2.2147    0.8849    1.2312 C   0  0  0  0  0  0  0  0  0  0  0  0
   -3.0738    1.4942    1.8398 O   0  0  0  0  0  0  0  0  0  0  0  0
   -2.5289   -0.2521    0.5793 N   0  0  0  0  0  0  0  0  0  0  0  0
   -3.8448   -0.7322    0.6026 N   0  0  0  0  0  0  0  0  0  0  0  0
   -4.1590   -1.8692   -0.0493 C   0  0  0  0  0  0  0  0  0  0  0  0
   -3.3025   -2.4767   -0.6562 O   0  0  0  0  0  0  0  0  0  0  0  0
   -5.5745   -2.3857   -0.0242 C   0  0  2  0  0  0  0  0  0  0  0  0
   -6.0470   -2.1589    0.9315 H   0  0  0  0  0  0  0  0  0  0  0  0
   -5.6034   -3.9221   -0.3039 C   0  0  2  0  0  0  0  0  0  0  0  0
   -4.8716   -4.5247    0.2341 H   0  0  0  0  0  0  0  0  0  0  0  0
   -5.5275   -3.9261   -1.8747 C   0  0  0  0  0  0  0  0  0  0  0  0
   -6.8138   -3.0349   -2.0302 C   0  0  2  0  0  0  0  0  0  0  0  0
   -7.1549   -2.8421   -3.0473 H   0  0  0  0  0  0  0  0  0  0  0  0
   -6.3938   -1.7852   -1.1927 C   0  0  2  0  0  0  0  0  0  0  0  0
   -7.2734   -1.2634   -0.8156 H   0  0  0  0  0  0  0  0  0  0  0  0
   -5.5390   -0.8577   -2.0175 C   0  0  0  0  0  0  0  0  0  0  0  0
   -4.9525   -1.2783   -2.9865 O   0  0  0  0  0  0  0  0  0  0  0  0
   -7.7901   -3.7855   -1.1161 C   0  0  0  0  0  0  0  0  0  0  0  0
   -7.1091   -4.2982   -0.1109 C   0  0  0  0  0  0  0  0  0  0  0  0
    2.4533    4.8924    4.6228 H   0  0  0  0  0  0  0  0  0  0  0  0
    2.1118    6.3507    5.5845 H   0  0  0  0  0  0  0  0  0  0  0  0
    0.9224    5.0279    5.5208 H   0  0  0  0  0  0  0  0  0  0  0  0
    1.6007    7.4631    2.0690 H   0  0  0  0  0  0  0  0  0  0  0  0
    2.5079    7.7728    3.5688 H   0  0  0  0  0  0  0  0  0  0  0  0
    2.8494    6.3144    2.6071 H   0  0  0  0  0  0  0  0  0  0  0  0
   -0.8303    6.6403    4.7654 H   0  0  0  0  0  0  0  0  0  0  0  0
    0.3590    7.9631    4.8292 H   0  0  0  0  0  0  0  0  0  0  0  0
   -0.5481    7.6534    3.3294 H   0  0  0  0  0  0  0  0  0  0  0  0
   -1.3357    5.0724    4.1227 H   0  0  0  0  0  0  0  0  0  0  0  0
   -0.1632    3.7658    4.4059 H   0  0  0  0  0  0  0  0  0  0  0  0
   -2.0479    4.0603    2.0267 H   0  0  0  0  0  0  0  0  0  0  0  0
   -2.0972    2.8055    3.2918 H   0  0  0  0  0  0  0  0  0  0  0  0
    0.0783   -0.1973   -0.0442 H   0  0  0  0  0  0  0  0  0  0  0  0
    2.0952    3.8649    3.2525 H   0  0  0  0  0  0  0  0  0  0  0  0
    2.1300    4.6456    1.6502 H   0  0  0  0  0  0  0  0  0  0  0  0
   -1.8439   -0.7379    0.0939 H   0  0  0  0  0  0  0  0  0  0  0  0
   -4.5298   -0.2463    1.0879 H   0  0  0  0  0  0  0  0  0  0  0  0
   -5.6567   -4.9229   -2.2964 H   0  0  0  0  0  0  0  0  0  0  0  0
   -4.6306   -3.4339   -2.2506 H   0  0  0  0  0  0  0  0  0  0  0  0
   -8.8550   -3.8782   -1.2700 H   0  0  0  0  0  0  0  0  0  0  0  0
   -7.5214   -4.8823    0.6985 H   0  0  0  0  0  0  0  0  0  0  0  0
   -5.4292    0.4356   -1.6755 O   0  5  0  0  0  0  0  0  0  0  0  0
  1  2  1  0  0  0  0
  1 34  1  0  0  0  0
  1 35  1  0  0  0  0
  1 36  1  0  0  0  0
  2  3  1  0  0  0  0
  2  4  1  0  0  0  0
  2  5  1  0  0  0  0
  3 37  1  0  0  0  0
  3 38  1  0  0  0  0
  3 39  1  0  0  0  0
  4 40  1  0  0  0  0
  4 41  1  0  0  0  0
  4 42  1  0  0  0  0
  5  6  1  0  0  0  0
  5 14  1  0  0  0  0
  5  7  1  0  0  0  0
  7  8  1  0  0  0  0
  7 43  1  0  0  0  0
  7 44  1  0  0  0  0
  8  9  1  0  0  0  0
  8 45  1  0  0  0  0
  8 46  1  0  0  0  0
  9 13  2  0  0  0  0
  9 10  1  0  0  0  0
 10 11  2  0  0  0  0
 10 15  1  0  0  0  0
 11 12  1  0  0  0  0
 11 47  1  0  0  0  0
 12 13  1  0  0  0  0
 13 14  1  0  0  0  0
 14 48  1  0  0  0  0
 14 49  1  0  0  0  0
 15 16  2  0  0  0  0
 15 17  1  0  0  0  0
 17 18  1  0  0  0  0
 17 50  1  0  0  0  0
 18 19  1  0  0  0  0
 18 51  1  0  0  0  0
 19 20  2  0  0  0  0
 19 21  1  0  0  0  0
 21 22  1  0  0  0  0
 21 28  1  0  0  0  0
 21 23  1  0  0  0  0
 23 24  1  0  0  0  0
 23 33  1  0  0  0  0
 23 25  1  0  0  0  0
 25 26  1  0  0  0  0
 25 52  1  0  0  0  0
 25 53  1  0  0  0  0
 26 27  1  0  0  0  0
 26 28  1  0  0  0  0
 26 32  1  0  0  0  0
 28 29  1  0  0  0  0
 28 30  1  0  0  0  0
 30 31  2  0  0  0  0
 30 56  1  0  0  0  0
 32 33  2  0  0  0  0
 32 54  1  0  0  0  0
 33 55  1  0  0  0  0
M  CHG  1  56  -1
M  END
$$$$
ZINC02765088
  -OEChem-08230709463D

 58 61  0     1  0  0  0  0  0999 V2000
   -2.9815   -3.1006    0.5641 C   0  0  0  0  0  0  0  0  0  0  0  0
   -1.7022   -3.2548    1.3890 C   0  0  0  0  0  0  0  0  0  0  0  0
   -1.1974   -4.6952    1.2828 C   0  0  0  0  0  0  0  0  0  0  0  0
   -1.9968   -2.9243    2.8535 C   0  0  0  0  0  0  0  0  0  0  0  0
   -0.6331   -2.2991    0.8555 C   0  0  2  0  0  0  0  0  0  0  0  0
   -0.4161   -2.5353   -0.1862 H   0  0  0  0  0  0  0  0  0  0  0  0
    0.6431   -2.4392    1.6902 C   0  0  0  0  0  0  0  0  0  0  0  0
    1.7896   -1.6791    1.0207 C   0  0  0  0  0  0  0  0  0  0  0  0
    1.3340   -0.2524    0.7413 C   0  0  0  0  0  0  0  0  0  0  0  0
    2.2395    0.8496    0.4767 C   0  0  0  0  0  0  0  0  0  0  0  0
    1.6906    2.0906    0.2403 C   0  0  0  0  0  0  0  0  0  0  0  0
   -0.0132    1.8013    0.3668 S   0  0  0  0  0  0  0  0  0  0  0  0
    0.0198    0.0680    0.7257 C   0  0  0  0  0  0  0  0  0  0  0  0
   -1.1373   -0.8522    0.9610 C   0  0  0  0  0  0  0  0  0  0  0  0
    3.6975    0.6481    0.4611 C   0  0  0  0  0  0  0  0  0  0  0  0
    4.1611   -0.4565    0.6721 O   0  0  0  0  0  0  0  0  0  0  0  0
    4.5188    1.6874    0.2129 N   0  0  0  0  0  0  0  0  0  0  0  0
    5.9065    1.4956    0.1979 N   0  0  0  0  0  0  0  0  0  0  0  0
    6.7278    2.5350   -0.0503 C   0  0  0  0  0  0  0  0  0  0  0  0
    6.2656    3.6364   -0.2607 O   0  0  0  0  0  0  0  0  0  0  0  0
    8.2205    2.3287   -0.0663 C   0  0  2  0  0  0  0  0  0  0  0  0
    8.4671    1.3801   -0.5432 H   0  0  0  0  0  0  0  0  0  0  0  0
    8.7910    2.3724    1.3842 C   0  0  2  0  0  0  0  0  0  0  0  0
    8.6832    1.4572    1.9664 H   0  0  0  0  0  0  0  0  0  0  0  0
    8.1663    3.6564    2.0108 C   0  0  0  0  0  0  0  0  0  0  0  0
    8.8642    4.8267    1.2810 C   0  0  0  0  0  0  0  0  0  0  0  0
    9.8449    4.1397    0.2821 C   0  0  1  0  0  0  0  0  0  0  0  0
   10.6550    4.7636   -0.0955 H   0  0  0  0  0  0  0  0  0  0  0  0
   10.2540    2.8678    1.1058 C   0  0  0  0  0  0  0  0  0  0  0  0
    8.9185    3.4991   -0.7961 C   0  0  1  0  0  0  0  0  0  0  0  0
    8.1820    4.2237   -1.1434 H   0  0  0  0  0  0  0  0  0  0  0  0
    9.7363    2.9842   -1.9525 C   0  0  0  0  0  0  0  0  0  0  0  0
   10.9320    3.1567   -1.9710 O   0  0  0  0  0  0  0  0  0  0  0  0
   -2.7716   -3.3360   -0.4793 H   0  0  0  0  0  0  0  0  0  0  0  0
   -3.7431   -3.7814    0.9441 H   0  0  0  0  0  0  0  0  0  0  0  0
   -3.3411   -2.0744    0.6397 H   0  0  0  0  0  0  0  0  0  0  0  0
   -0.2860   -4.8050    1.8705 H   0  0  0  0  0  0  0  0  0  0  0  0
   -1.9590   -5.3761    1.6628 H   0  0  0  0  0  0  0  0  0  0  0  0
   -0.9875   -4.9306    0.2394 H   0  0  0  0  0  0  0  0  0  0  0  0
   -2.3564   -1.8981    2.9292 H   0  0  0  0  0  0  0  0  0  0  0  0
   -2.7584   -3.6051    3.2335 H   0  0  0  0  0  0  0  0  0  0  0  0
   -1.0854   -3.0341    3.4412 H   0  0  0  0  0  0  0  0  0  0  0  0
    0.4710   -2.0310    2.6861 H   0  0  0  0  0  0  0  0  0  0  0  0
    0.9075   -3.4934    1.7732 H   0  0  0  0  0  0  0  0  0  0  0  0
    2.6543   -1.6633    1.6841 H   0  0  0  0  0  0  0  0  0  0  0  0
    2.0543   -2.1684    0.0833 H   0  0  0  0  0  0  0  0  0  0  0  0
    2.1991    3.0194    0.0277 H   0  0  0  0  0  0  0  0  0  0  0  0
   -1.5487   -0.6782    1.9553 H   0  0  0  0  0  0  0  0  0  0  0  0
   -1.9060   -0.6754    0.2088 H   0  0  0  0  0  0  0  0  0  0  0  0
    4.1491    2.5683    0.0446 H   0  0  0  0  0  0  0  0  0  0  0  0
    6.2762    0.6148    0.3662 H   0  0  0  0  0  0  0  0  0  0  0  0
    7.0916    3.6829    1.8305 H   0  0  0  0  0  0  0  0  0  0  0  0
    8.3742    3.6972    3.0800 H   0  0  0  0  0  0  0  0  0  0  0  0
    8.1327    5.4287    0.7419 H   0  0  0  0  0  0  0  0  0  0  0  0
    9.4153    5.4430    1.9913 H   0  0  0  0  0  0  0  0  0  0  0  0
   10.7795    3.1275    2.0248 H   0  0  0  0  0  0  0  0  0  0  0  0
   10.8192    2.1558    0.5045 H   0  0  0  0  0  0  0  0  0  0  0  0
    9.1363    2.3338   -2.9619 O   0  5  0  0  0  0  0  0  0  0  0  0
  1  2  1  0  0  0  0
  1 34  1  0  0  0  0
  1 35  1  0  0  0  0
  1 36  1  0  0  0  0
  2  3  1  0  0  0  0
  2  4  1  0  0  0  0
  2  5  1  0  0  0  0
  3 37  1  0  0  0  0
  3 38  1  0  0  0  0
  3 39  1  0  0  0  0
  4 40  1  0  0  0  0
  4 41  1  0  0  0  0
  4 42  1  0  0  0  0
  5  6  1  0  0  0  0
  5 14  1  0  0  0  0
  5  7  1  0  0  0  0
  7  8  1  0  0  0  0
  7 43  1  0  0  0  0
  7 44  1  0  0  0  0
  8  9  1  0  0  0  0
  8 45  1  0  0  0  0
  8 46  1  0  0  0  0
  9 13  2  0  0  0  0
  9 10  1  0  0  0  0
 10 11  2  0  0  0  0
 10 15  1  0  0  0  0
 11 12  1  0  0  0  0
 11 47  1  0  0  0  0
 12 13  1  0  0  0  0
 13 14  1  0  0  0  0
 14 48  1  0  0  0  0
 14 49  1  0  0  0  0
 15 16  2  0  0  0  0
 15 17  1  0  0  0  0
 17 18  1  0  0  0  0
 17 50  1  0  0  0  0
 18 19  1  0  0  0  0
 18 51  1  0  0  0  0
 19 20  2  0  0  0  0
 19 21  1  0  0  0  0
 21 22  1  0  0  0  0
 21 30  1  0  0  0  0
 21 23  1  0  0  0  0
 23 24  1  0  0  0  0
 23 29  1  0  0  0  0
 23 25  1  0  0  0  0
 25 26  1  0  0  0  0
 25 52  1  0  0  0  0
 25 53  1  0  0  0  0
 26 27  1  0  0  0  0
 26 54  1  0  0  0  0
 26 55  1  0  0  0  0
 27 28  1  0  0  0  0
 27 29  1  0  0  0  0
 27 30  1  0  0  0  0
 29 56  1  0  0  0  0
 29 57  1  0  0  0  0
 30 31  1  0  0  0  0
 30 32  1  0  0  0  0
 32 33  2  0  0  0  0
 32 58  1  0  0  0  0
M  CHG  1  58  -1
M  END
$$$$
ZINC02765236
  -OEChem-08230709463D

 57 59  0     1  0  0  0  0  0999 V2000
    3.0249   -6.5347    1.1546 C   0  0  0  0  0  0  0  0  0  0  0  0
    2.0554   -6.2193    0.0137 C   0  0  0  0  0  0  0  0  0  0  0  0
    2.5618   -5.0965   -0.7552 O   0  0  0  0  0  0  0  0  0  0  0  0
    1.8194   -4.6888   -1.8050 C   0  0  0  0  0  0  0  0  0  0  0  0
    0.7770   -5.2569   -2.0699 O   0  0  0  0  0  0  0  0  0  0  0  0
    2.2684   -3.5622   -2.6257 C   0  0  0  0  0  0  0  0  0  0  0  0
    3.1158   -3.7707   -3.7965 C   0  0  0  0  0  0  0  0  0  0  0  0
    3.4555   -2.6490   -4.4506 C   0  0  0  0  0  0  0  0  0  0  0  0
    2.6780   -1.3317   -3.5595 S   0  0  0  0  0  0  0  0  0  0  0  0
    1.9004   -2.2599   -2.3203 C   0  0  0  0  0  0  0  0  0  0  0  0
    1.1087   -1.8104   -1.2751 N   0  0  0  0  0  0  0  0  0  0  0  0
    0.8629   -0.4928   -1.1343 C   0  0  0  0  0  0  0  0  0  0  0  0
    1.3344    0.2996   -1.9221 O   0  0  0  0  0  0  0  0  0  0  0  0
    0.0021   -0.0041    0.0020 C   0  0  1  0  0  0  0  0  0  0  0  0
   -0.0288   -0.7579    0.7887 H   0  0  0  0  0  0  0  0  0  0  0  0
    0.5735    1.3004    0.5618 C   0  0  0  0  0  0  0  0  0  0  0  0
    0.3786    2.4151   -0.4238 C   0  0  0  0  0  0  0  0  0  0  0  0
   -0.4517    2.3692   -1.4158 C   0  0  0  0  0  0  0  0  0  0  0  0
   -1.3282    1.1909   -1.7248 C   0  0  0  0  0  0  0  0  0  0  0  0
   -1.4189    0.2680   -0.5076 C   0  0  1  0  0  0  0  0  0  0  0  0
   -2.0029    0.7510    0.2758 H   0  0  0  0  0  0  0  0  0  0  0  0
   -2.0721   -1.0309   -0.9043 C   0  0  0  0  0  0  0  0  0  0  0  0
   -1.4667   -2.0705   -0.7925 O   0  0  0  0  0  0  0  0  0  0  0  0
    4.3082   -2.5704   -5.6694 C   0  0  0  0  0  0  0  0  0  0  0  0
    3.4812   -2.7699   -6.9577 C   0  0  0  0  0  0  0  0  0  0  0  0
    3.5309   -4.2756   -7.3151 C   0  0  0  0  0  0  0  0  0  0  0  0
    2.1318   -4.8638   -7.1139 C   0  0  0  0  0  0  0  0  0  0  0  0
    1.6255   -4.8694   -5.6996 C   0  0  0  0  0  0  0  0  0  0  0  0
    2.3696   -5.8817   -4.8185 C   0  0  0  0  0  0  0  0  0  0  0  0
    3.5781   -5.1485   -4.2311 C   0  0  0  0  0  0  0  0  0  0  0  0
    2.6448   -7.3775    1.7318 H   0  0  0  0  0  0  0  0  0  0  0  0
    4.0015   -6.7878    0.7419 H   0  0  0  0  0  0  0  0  0  0  0  0
    3.1191   -5.6634    1.8027 H   0  0  0  0  0  0  0  0  0  0  0  0
    1.0788   -5.9661    0.4264 H   0  0  0  0  0  0  0  0  0  0  0  0
    1.9612   -7.0906   -0.6344 H   0  0  0  0  0  0  0  0  0  0  0  0
    0.7316   -2.4442   -0.6450 H   0  0  0  0  0  0  0  0  0  0  0  0
    0.0636    1.5481    1.4928 H   0  0  0  0  0  0  0  0  0  0  0  0
    1.6382    1.1737    0.7581 H   0  0  0  0  0  0  0  0  0  0  0  0
    0.9675    3.3116   -0.2975 H   0  0  0  0  0  0  0  0  0  0  0  0
   -0.5180    3.2327   -2.0611 H   0  0  0  0  0  0  0  0  0  0  0  0
   -0.9086    0.6392   -2.5660 H   0  0  0  0  0  0  0  0  0  0  0  0
   -2.3262    1.5420   -1.9872 H   0  0  0  0  0  0  0  0  0  0  0  0
    4.7900   -1.5933   -5.7039 H   0  0  0  0  0  0  0  0  0  0  0  0
    5.0759   -3.3423   -5.6166 H   0  0  0  0  0  0  0  0  0  0  0  0
    2.4491   -2.4642   -6.7860 H   0  0  0  0  0  0  0  0  0  0  0  0
    3.9112   -2.1816   -7.7683 H   0  0  0  0  0  0  0  0  0  0  0  0
    3.8342   -4.3965   -8.3551 H   0  0  0  0  0  0  0  0  0  0  0  0
    4.2408   -4.7847   -6.6633 H   0  0  0  0  0  0  0  0  0  0  0  0
    1.4312   -4.2946   -7.7248 H   0  0  0  0  0  0  0  0  0  0  0  0
    2.1389   -5.8922   -7.4749 H   0  0  0  0  0  0  0  0  0  0  0  0
    1.7504   -3.8730   -5.2757 H   0  0  0  0  0  0  0  0  0  0  0  0
    0.5644   -5.1186   -5.7051 H   0  0  0  0  0  0  0  0  0  0  0  0
    1.7178   -6.2283   -4.0166 H   0  0  0  0  0  0  0  0  0  0  0  0
    2.7013   -6.7274   -5.4209 H   0  0  0  0  0  0  0  0  0  0  0  0
    3.9613   -5.6979   -3.3712 H   0  0  0  0  0  0  0  0  0  0  0  0
    4.3575   -5.0560   -4.9875 H   0  0  0  0  0  0  0  0  0  0  0  0
   -3.3266   -1.0328   -1.3818 O   0  5  0  0  0  0  0  0  0  0  0  0
  1  2  1  0  0  0  0
  1 31  1  0  0  0  0
  1 32  1  0  0  0  0
  1 33  1  0  0  0  0
  2  3  1  0  0  0  0
  2 34  1  0  0  0  0
  2 35  1  0  0  0  0
  3  4  1  0  0  0  0
  4  5  2  0  0  0  0
  4  6  1  0  0  0  0
  6 10  2  0  0  0  0
  6  7  1  0  0  0  0
  7 30  1  0  0  0  0
  7  8  2  0  0  0  0
  8  9  1  0  0  0  0
  8 24  1  0  0  0  0
  9 10  1  0  0  0  0
 10 11  1  0  0  0  0
 11 12  1  0  0  0  0
 11 36  1  0  0  0  0
 12 13  2  0  0  0  0
 12 14  1  0  0  0  0
 14 15  1  0  0  0  0
 14 20  1  0  0  0  0
 14 16  1  0  0  0  0
 16 17  1  0  0  0  0
 16 37  1  0  0  0  0
 16 38  1  0  0  0  0
 17 18  2  0  0  0  0
 17 39  1  0  0  0  0
 18 19  1  0  0  0  0
 18 40  1  0  0  0  0
 19 20  1  0  0  0  0
 19 41  1  0  0  0  0
 19 42  1  0  0  0  0
 20 21  1  0  0  0  0
 20 22  1  0  0  0  0
 22 23  2  0  0  0  0
 22 57  1  0  0  0  0
 24 25  1  0  0  0  0
 24 43  1  0  0  0  0
 24 44  1  0  0  0  0
 25 26  1  0  0  0  0
 25 45  1  0  0  0  0
 25 46  1  0  0  0  0
 26 27  1  0  0  0  0
 26 47  1  0  0  0  0
 26 48  1  0  0  0  0
 27 28  1  0  0  0  0
 27 49  1  0  0  0  0
 27 50  1  0  0  0  0
 28 29  1  0  0  0  0
 28 51  1  0  0  0  0
 28 52  1  0  0  0  0
 29 30  1  0  0  0  0
 29 53  1  0  0  0  0
 29 54  1  0  0  0  0
 30 55  1  0  0  0  0
 30 56  1  0  0  0  0
M  CHG  1  57  -1
M  END
$$$$
ZINC02765237
  -OEChem-08230709463D

 57 59  0     1  0  0  0  0  0999 V2000
    3.9421    1.0939    3.9271 C   0  0  0  0  0  0  0  0  0  0  0  0
    2.4383    0.8168    3.8772 C   0  0  0  0  0  0  0  0  0  0  0  0
    2.1060    0.1746    2.6181 O   0  0  0  0  0  0  0  0  0  0  0  0
    0.8101   -0.1392    2.4140 C   0  0  0  0  0  0  0  0  0  0  0  0
   -0.0193    0.1174    3.2660 O   0  0  0  0  0  0  0  0  0  0  0  0
    0.4018   -0.7888    1.1667 C   0  0  0  0  0  0  0  0  0  0  0  0
    0.0021   -0.0041    0.0020 C   0  0  0  0  0  0  0  0  0  0  0  0
   -0.3453   -0.7308   -1.0721 C   0  0  0  0  0  0  0  0  0  0  0  0
   -0.1577   -2.4200   -0.5770 S   0  0  0  0  0  0  0  0  0  0  0  0
    0.3817   -2.1710    1.0505 C   0  0  0  0  0  0  0  0  0  0  0  0
    0.7128   -3.1212    2.0038 N   0  0  0  0  0  0  0  0  0  0  0  0
    0.6308   -4.4328    1.7048 C   0  0  0  0  0  0  0  0  0  0  0  0
    0.2672   -4.7817    0.6017 O   0  0  0  0  0  0  0  0  0  0  0  0
    0.9908   -5.4658    2.7413 C   0  0  2  0  0  0  0  0  0  0  0  0
    0.3470   -5.3500    3.6131 H   0  0  0  0  0  0  0  0  0  0  0  0
    2.4551   -5.2945    3.1513 C   0  0  0  0  0  0  0  0  0  0  0  0
    2.9018   -6.4667    3.9750 C   0  0  0  0  0  0  0  0  0  0  0  0
    2.2762   -7.5988    4.0244 C   0  0  0  0  0  0  0  0  0  0  0  0
    1.0114   -7.8941    3.2726 C   0  0  0  0  0  0  0  0  0  0  0  0
    0.8132   -6.8710    2.1522 C   0  0  1  0  0  0  0  0  0  0  0  0
    1.5536   -7.0365    1.3696 H   0  0  0  0  0  0  0  0  0  0  0  0
   -0.5724   -7.0070    1.5754 C   0  0  0  0  0  0  0  0  0  0  0  0
   -1.3426   -6.0775    1.6279 O   0  0  0  0  0  0  0  0  0  0  0  0
   -0.7894   -0.1909   -2.3872 C   0  0  0  0  0  0  0  0  0  0  0  0
    0.4080    0.1330   -3.3065 C   0  0  0  0  0  0  0  0  0  0  0  0
    0.7671    1.6248   -3.0942 C   0  0  0  0  0  0  0  0  0  0  0  0
    2.1314    1.6951   -2.4032 C   0  0  0  0  0  0  0  0  0  0  0  0
    2.1868    1.1302   -1.0121 C   0  0  0  0  0  0  0  0  0  0  0  0
    1.4310    2.0027   -0.0008 C   0  0  0  0  0  0  0  0  0  0  0  0
   -0.0185    1.5122    0.0104 C   0  0  0  0  0  0  0  0  0  0  0  0
    4.2185    1.7491    3.1010 H   0  0  0  0  0  0  0  0  0  0  0  0
    4.1916    1.5760    4.8723 H   0  0  0  0  0  0  0  0  0  0  0  0
    4.4878    0.1540    3.8436 H   0  0  0  0  0  0  0  0  0  0  0  0
    1.8927    1.7567    3.9608 H   0  0  0  0  0  0  0  0  0  0  0  0
    2.1620    0.1616    4.7033 H   0  0  0  0  0  0  0  0  0  0  0  0
    1.0037   -2.8421    2.8861 H   0  0  0  0  0  0  0  0  0  0  0  0
    3.0748   -5.2241    2.2573 H   0  0  0  0  0  0  0  0  0  0  0  0
    2.5622   -4.3806    3.7355 H   0  0  0  0  0  0  0  0  0  0  0  0
    3.8013   -6.3590    4.5629 H   0  0  0  0  0  0  0  0  0  0  0  0
    2.6901   -8.3794    4.6455 H   0  0  0  0  0  0  0  0  0  0  0  0
    0.1649   -7.8483    3.9577 H   0  0  0  0  0  0  0  0  0  0  0  0
    1.0742   -8.8936    2.8423 H   0  0  0  0  0  0  0  0  0  0  0  0
   -1.4247   -0.9284   -2.8778 H   0  0  0  0  0  0  0  0  0  0  0  0
   -1.3664    0.7189   -2.2213 H   0  0  0  0  0  0  0  0  0  0  0  0
    1.2590   -0.4941   -3.0407 H   0  0  0  0  0  0  0  0  0  0  0  0
    0.1324   -0.0370   -4.3472 H   0  0  0  0  0  0  0  0  0  0  0  0
    0.8164    2.1318   -4.0579 H   0  0  0  0  0  0  0  0  0  0  0  0
    0.0123    2.0990   -2.4669 H   0  0  0  0  0  0  0  0  0  0  0  0
    2.8535    1.1583   -3.0184 H   0  0  0  0  0  0  0  0  0  0  0  0
    2.4382    2.7402   -2.3595 H   0  0  0  0  0  0  0  0  0  0  0  0
    1.7464    0.1331   -1.0176 H   0  0  0  0  0  0  0  0  0  0  0  0
    3.2292    1.0543   -0.7026 H   0  0  0  0  0  0  0  0  0  0  0  0
    1.4683    3.0477   -0.3086 H   0  0  0  0  0  0  0  0  0  0  0  0
    1.8704    1.8891    0.9902 H   0  0  0  0  0  0  0  0  0  0  0  0
   -0.5387    1.8788   -0.8746 H   0  0  0  0  0  0  0  0  0  0  0  0
   -0.5216    1.8692    0.9090 H   0  0  0  0  0  0  0  0  0  0  0  0
   -0.9510   -8.1607    1.0033 O   0  5  0  0  0  0  0  0  0  0  0  0
  1  2  1  0  0  0  0
  1 31  1  0  0  0  0
  1 32  1  0  0  0  0
  1 33  1  0  0  0  0
  2  3  1  0  0  0  0
  2 34  1  0  0  0  0
  2 35  1  0  0  0  0
  3  4  1  0  0  0  0
  4  5  2  0  0  0  0
  4  6  1  0  0  0  0
  6 10  2  0  0  0  0
  6  7  1  0  0  0  0
  7 30  1  0  0  0  0
  7  8  2  0  0  0  0
  8  9  1  0  0  0  0
  8 24  1  0  0  0  0
  9 10  1  0  0  0  0
 10 11  1  0  0  0  0
 11 12  1  0  0  0  0
 11 36  1  0  0  0  0
 12 13  2  0  0  0  0
 12 14  1  0  0  0  0
 14 15  1  0  0  0  0
 14 20  1  0  0  0  0
 14 16  1  0  0  0  0
 16 17  1  0  0  0  0
 16 37  1  0  0  0  0
 16 38  1  0  0  0  0
 17 18  2  0  0  0  0
 17 39  1  0  0  0  0
 18 19  1  0  0  0  0
 18 40  1  0  0  0  0
 19 20  1  0  0  0  0
 19 41  1  0  0  0  0
 19 42  1  0  0  0  0
 20 21  1  0  0  0  0
 20 22  1  0  0  0  0
 22 23  2  0  0  0  0
 22 57  1  0  0  0  0
 24 25  1  0  0  0  0
 24 43  1  0  0  0  0
 24 44  1  0  0  0  0
 25 26  1  0  0  0  0
 25 45  1  0  0  0  0
 25 46  1  0  0  0  0
 26 27  1  0  0  0  0
 26 47  1  0  0  0  0
 26 48  1  0  0  0  0
 27 28  1  0  0  0  0
 27 49  1  0  0  0  0
 27 50  1  0  0  0  0
 28 29  1  0  0  0  0
 28 51  1  0  0  0  0
 28 52  1  0  0  0  0
 29 30  1  0  0  0  0
 29 53  1  0  0  0  0
 29 54  1  0  0  0  0
 30 55  1  0  0  0  0
 30 56  1  0  0  0  0
M  CHG  1  57  -1
M  END
$$$$
ZINC02765238
  -OEChem-08230709463D

 57 59  0     1  0  0  0  0  0999 V2000
    2.5417    6.0590   -2.4961 C   0  0  0  0  0  0  0  0  0  0  0  0
    2.3819    5.4930   -1.0837 C   0  0  0  0  0  0  0  0  0  0  0  0
    1.9499    4.1090   -1.1629 O   0  0  0  0  0  0  0  0  0  0  0  0
    1.7610    3.4588    0.0037 C   0  0  0  0  0  0  0  0  0  0  0  0
    1.9523    4.0338    1.0584 O   0  0  0  0  0  0  0  0  0  0  0  0
    1.3255    2.0607    0.0005 C   0  0  0  0  0  0  0  0  0  0  0  0
    2.2937    0.9678   -0.0150 C   0  0  0  0  0  0  0  0  0  0  0  0
    1.7535   -0.2609   -0.0156 C   0  0  0  0  0  0  0  0  0  0  0  0
    0.0021   -0.0041    0.0020 S   0  0  0  0  0  0  0  0  0  0  0  0
   -0.0214    1.7283    0.0115 C   0  0  0  0  0  0  0  0  0  0  0  0
   -1.1184    2.5755    0.0216 N   0  0  0  0  0  0  0  0  0  0  0  0
   -2.3652    2.0637    0.0256 C   0  0  0  0  0  0  0  0  0  0  0  0
   -2.5273    0.8618    0.0203 O   0  0  0  0  0  0  0  0  0  0  0  0
   -3.5578    2.9848    0.0366 C   0  0  1  0  0  0  0  0  0  0  0  0
   -3.5333    3.6052    0.9324 H   0  0  0  0  0  0  0  0  0  0  0  0
   -3.5310    3.8759   -1.2072 C   0  0  0  0  0  0  0  0  0  0  0  0
   -4.8347    4.6056   -1.3484 C   0  0  0  0  0  0  0  0  0  0  0  0
   -5.9249    4.2675   -0.7380 C   0  0  0  0  0  0  0  0  0  0  0  0
   -6.0350    3.1048    0.2044 C   0  0  0  0  0  0  0  0  0  0  0  0
   -4.8489    2.1569    0.0125 C   0  0  2  0  0  0  0  0  0  0  0  0
   -4.9390    1.6463   -0.9463 H   0  0  0  0  0  0  0  0  0  0  0  0
   -4.8231    1.1456    1.1294 C   0  0  0  0  0  0  0  0  0  0  0  0
   -3.8711    1.0891    1.8714 O   0  0  0  0  0  0  0  0  0  0  0  0
    2.5043   -1.5473   -0.0262 C   0  0  0  0  0  0  0  0  0  0  0  0
    2.8918   -1.9932    1.4002 C   0  0  0  0  0  0  0  0  0  0  0  0
    4.3111   -1.4465    1.6902 C   0  0  0  0  0  0  0  0  0  0  0  0
    4.1990   -0.3669    2.7700 C   0  0  0  0  0  0  0  0  0  0  0  0
    3.4357    0.8668    2.3801 C   0  0  0  0  0  0  0  0  0  0  0  0
    4.1942    1.7211    1.3555 C   0  0  0  0  0  0  0  0  0  0  0  0
    3.7914    1.2080   -0.0292 C   0  0  0  0  0  0  0  0  0  0  0  0
    2.8660    7.0980   -2.4367 H   0  0  0  0  0  0  0  0  0  0  0  0
    3.2862    5.4765   -3.0388 H   0  0  0  0  0  0  0  0  0  0  0  0
    1.5869    6.0058   -3.0191 H   0  0  0  0  0  0  0  0  0  0  0  0
    1.6374    6.0755   -0.5410 H   0  0  0  0  0  0  0  0  0  0  0  0
    3.3367    5.5463   -0.5607 H   0  0  0  0  0  0  0  0  0  0  0  0
   -0.9887    3.5368    0.0258 H   0  0  0  0  0  0  0  0  0  0  0  0
   -2.7203    4.5987   -1.1163 H   0  0  0  0  0  0  0  0  0  0  0  0
   -3.3673    3.2585   -2.0905 H   0  0  0  0  0  0  0  0  0  0  0  0
   -4.8650    5.4667   -1.9996 H   0  0  0  0  0  0  0  0  0  0  0  0
   -6.8103    4.8592   -0.9178 H   0  0  0  0  0  0  0  0  0  0  0  0
   -6.0427    3.4712    1.2309 H   0  0  0  0  0  0  0  0  0  0  0  0
   -6.9625    2.5671    0.0079 H   0  0  0  0  0  0  0  0  0  0  0  0
    1.8833   -2.3177   -0.4832 H   0  0  0  0  0  0  0  0  0  0  0  0
    3.4114   -1.4247   -0.6180 H   0  0  0  0  0  0  0  0  0  0  0  0
    2.1834   -1.5847    2.1209 H   0  0  0  0  0  0  0  0  0  0  0  0
    2.8952   -3.0816    1.4596 H   0  0  0  0  0  0  0  0  0  0  0  0
    4.9510   -2.2549    2.0439 H   0  0  0  0  0  0  0  0  0  0  0  0
    4.7314   -1.0152    0.7817 H   0  0  0  0  0  0  0  0  0  0  0  0
    3.7152   -0.8059    3.6425 H   0  0  0  0  0  0  0  0  0  0  0  0
    5.2064   -0.0651    3.0567 H   0  0  0  0  0  0  0  0  0  0  0  0
    2.4781    0.5695    1.9527 H   0  0  0  0  0  0  0  0  0  0  0  0
    3.2533    1.4661    3.2721 H   0  0  0  0  0  0  0  0  0  0  0  0
    3.9120    2.7686    1.4616 H   0  0  0  0  0  0  0  0  0  0  0  0
    5.2688    1.6070    1.4975 H   0  0  0  0  0  0  0  0  0  0  0  0
    4.0389    1.9528   -0.7855 H   0  0  0  0  0  0  0  0  0  0  0  0
    4.3139    0.2758   -0.2441 H   0  0  0  0  0  0  0  0  0  0  0  0
   -5.8576    0.3075    1.3000 O   0  5  0  0  0  0  0  0  0  0  0  0
  1  2  1  0  0  0  0
  1 31  1  0  0  0  0
  1 32  1  0  0  0  0
  1 33  1  0  0  0  0
  2  3  1  0  0  0  0
  2 34  1  0  0  0  0
  2 35  1  0  0  0  0
  3  4  1  0  0  0  0
  4  5  2  0  0  0  0
  4  6  1  0  0  0  0
  6 10  2  0  0  0  0
  6  7  1  0  0  0  0
  7 30  1  0  0  0  0
  7  8  2  0  0  0  0
  8  9  1  0  0  0  0
  8 24  1  0  0  0  0
  9 10  1  0  0  0  0
 10 11  1  0  0  0  0
 11 12  1  0  0  0  0
 11 36  1  0  0  0  0
 12 13  2  0  0  0  0
 12 14  1  0  0  0  0
 14 15  1  0  0  0  0
 14 20  1  0  0  0  0
 14 16  1  0  0  0  0
 16 17  1  0  0  0  0
 16 37  1  0  0  0  0
 16 38  1  0  0  0  0
 17 18  2  0  0  0  0
 17 39  1  0  0  0  0
 18 19  1  0  0  0  0
 18 40  1  0  0  0  0
 19 20  1  0  0  0  0
 19 41  1  0  0  0  0
 19 42  1  0  0  0  0
 20 21  1  0  0  0  0
 20 22  1  0  0  0  0
 22 23  2  0  0  0  0
 22 57  1  0  0  0  0
 24 25  1  0  0  0  0
 24 43  1  0  0  0  0
 24 44  1  0  0  0  0
 25 26  1  0  0  0  0
 25 45  1  0  0  0  0
 25 46  1  0  0  0  0
 26 27  1  0  0  0  0
 26 47  1  0  0  0  0
 26 48  1  0  0  0  0
 27 28  1  0  0  0  0
 27 49  1  0  0  0  0
 27 50  1  0  0  0  0
 28 29  1  0  0  0  0
 28 51  1  0  0  0  0
 28 52  1  0  0  0  0
 29 30  1  0  0  0  0
 29 53  1  0  0  0  0
 29 54  1  0  0  0  0
 30 55  1  0  0  0  0
 30 56  1  0  0  0  0
M  CHG  1  57  -1
M  END
$$$$
ZINC02765239
  -OEChem-08230709463D

 57 59  0     1  0  0  0  0  0999 V2000
   -1.9412   -5.1351    0.8827 C   0  0  0  0  0  0  0  0  0  0  0  0
   -1.3434   -4.4572   -0.3518 C   0  0  0  0  0  0  0  0  0  0  0  0
   -0.2664   -3.5727    0.0555 O   0  0  0  0  0  0  0  0  0  0  0  0
    0.3707   -2.8937   -0.9205 C   0  0  0  0  0  0  0  0  0  0  0  0
    0.0344   -3.0376   -2.0806 O   0  0  0  0  0  0  0  0  0  0  0  0
    1.4671   -1.9834   -0.5834 C   0  0  0  0  0  0  0  0  0  0  0  0
    2.8488   -2.4523   -0.5298 C   0  0  0  0  0  0  0  0  0  0  0  0
    3.7497   -1.5091   -0.2108 C   0  0  0  0  0  0  0  0  0  0  0  0
    2.8140   -0.0235    0.0153 S   0  0  0  0  0  0  0  0  0  0  0  0
    1.2290   -0.6458   -0.3035 C   0  0  0  0  0  0  0  0  0  0  0  0
    0.0186    0.0296   -0.2885 N   0  0  0  0  0  0  0  0  0  0  0  0
   -0.0162    1.3436    0.0094 C   0  0  0  0  0  0  0  0  0  0  0  0
    1.0114    1.9350    0.2644 O   0  0  0  0  0  0  0  0  0  0  0  0
   -1.3314    2.0792    0.0197 C   0  0  2  0  0  0  0  0  0  0  0  0
   -2.0637    1.5287   -0.5708 H   0  0  0  0  0  0  0  0  0  0  0  0
   -1.1414    3.4806   -0.5649 C   0  0  0  0  0  0  0  0  0  0  0  0
   -0.3437    4.3310    0.3799 C   0  0  0  0  0  0  0  0  0  0  0  0
   -0.1606    4.0500    1.6301 C   0  0  0  0  0  0  0  0  0  0  0  0
   -0.7120    2.8296    2.3072 C   0  0  0  0  0  0  0  0  0  0  0  0
   -1.8326    2.2193    1.4626 C   0  0  2  0  0  0  0  0  0  0  0  0
   -2.7055    2.8717    1.4856 H   0  0  0  0  0  0  0  0  0  0  0  0
   -2.2001    0.8622    2.0052 C   0  0  0  0  0  0  0  0  0  0  0  0
   -2.0755   -0.1196    1.3120 O   0  0  0  0  0  0  0  0  0  0  0  0
    5.2204   -1.7100   -0.0884 C   0  0  0  0  0  0  0  0  0  0  0  0
    5.9321   -1.5746   -1.4519 C   0  0  0  0  0  0  0  0  0  0  0  0
    6.0403   -2.9944   -2.0621 C   0  0  0  0  0  0  0  0  0  0  0  0
    5.1315   -3.0561   -3.2927 C   0  0  0  0  0  0  0  0  0  0  0  0
    3.6605   -2.9108   -3.0239 C   0  0  0  0  0  0  0  0  0  0  0  0
    3.0765   -4.1380   -2.3118 C   0  0  0  0  0  0  0  0  0  0  0  0
    3.2311   -3.8930   -0.8092 C   0  0  0  0  0  0  0  0  0  0  0  0
   -1.1685   -5.7130    1.3897 H   0  0  0  0  0  0  0  0  0  0  0  0
   -2.3311   -4.3761    1.5609 H   0  0  0  0  0  0  0  0  0  0  0  0
   -2.7497   -5.7991    0.5769 H   0  0  0  0  0  0  0  0  0  0  0  0
   -2.1161   -3.8793   -0.8589 H   0  0  0  0  0  0  0  0  0  0  0  0
   -0.9535   -5.2162   -1.0301 H   0  0  0  0  0  0  0  0  0  0  0  0
   -0.8033   -0.4434   -0.4925 H   0  0  0  0  0  0  0  0  0  0  0  0
   -0.6153    3.4068   -1.5166 H   0  0  0  0  0  0  0  0  0  0  0  0
   -2.1167    3.9392   -0.7281 H   0  0  0  0  0  0  0  0  0  0  0  0
    0.1052    5.2337   -0.0073 H   0  0  0  0  0  0  0  0  0  0  0  0
    0.4252    4.7369    2.2230 H   0  0  0  0  0  0  0  0  0  0  0  0
   -1.1062    3.1059    3.2851 H   0  0  0  0  0  0  0  0  0  0  0  0
    0.0855    2.0972    2.4329 H   0  0  0  0  0  0  0  0  0  0  0  0
    5.4108   -2.7048    0.3145 H   0  0  0  0  0  0  0  0  0  0  0  0
    5.6236   -0.9657    0.5983 H   0  0  0  0  0  0  0  0  0  0  0  0
    6.9283   -1.1556   -1.3097 H   0  0  0  0  0  0  0  0  0  0  0  0
    5.3496   -0.9313   -2.1115 H   0  0  0  0  0  0  0  0  0  0  0  0
    5.7187   -3.7350   -1.3298 H   0  0  0  0  0  0  0  0  0  0  0  0
    7.0714   -3.1908   -2.3562 H   0  0  0  0  0  0  0  0  0  0  0  0
    5.2946   -4.0124   -3.7896 H   0  0  0  0  0  0  0  0  0  0  0  0
    5.4333   -2.2627   -3.9764 H   0  0  0  0  0  0  0  0  0  0  0  0
    3.1400   -2.7707   -3.9713 H   0  0  0  0  0  0  0  0  0  0  0  0
    3.5001   -2.0309   -2.4008 H   0  0  0  0  0  0  0  0  0  0  0  0
    3.6261   -5.0336   -2.6017 H   0  0  0  0  0  0  0  0  0  0  0  0
    2.0221   -4.2503   -2.5644 H   0  0  0  0  0  0  0  0  0  0  0  0
    4.2658   -4.0641   -0.5123 H   0  0  0  0  0  0  0  0  0  0  0  0
    2.5725   -4.5630   -0.2566 H   0  0  0  0  0  0  0  0  0  0  0  0
   -2.6660    0.7441    3.2585 O   0  5  0  0  0  0  0  0  0  0  0  0
  1  2  1  0  0  0  0
  1 31  1  0  0  0  0
  1 32  1  0  0  0  0
  1 33  1  0  0  0  0
  2  3  1  0  0  0  0
  2 34  1  0  0  0  0
  2 35  1  0  0  0  0
  3  4  1  0  0  0  0
  4  5  2  0  0  0  0
  4  6  1  0  0  0  0
  6 10  2  0  0  0  0
  6  7  1  0  0  0  0
  7 30  1  0  0  0  0
  7  8  2  0  0  0  0
  8  9  1  0  0  0  0
  8 24  1  0  0  0  0
  9 10  1  0  0  0  0
 10 11  1  0  0  0  0
 11 12  1  0  0  0  0
 11 36  1  0  0  0  0
 12 13  2  0  0  0  0
 12 14  1  0  0  0  0
 14 15  1  0  0  0  0
 14 20  1  0  0  0  0
 14 16  1  0  0  0  0
 16 17  1  0  0  0  0
 16 37  1  0  0  0  0
 16 38  1  0  0  0  0
 17 18  2  0  0  0  0
 17 39  1  0  0  0  0
 18 19  1  0  0  0  0
 18 40  1  0  0  0  0
 19 20  1  0  0  0  0
 19 41  1  0  0  0  0
 19 42  1  0  0  0  0
 20 21  1  0  0  0  0
 20 22  1  0  0  0  0
 22 23  2  0  0  0  0
 22 57  1  0  0  0  0
 24 25  1  0  0  0  0
 24 43  1  0  0  0  0
 24 44  1  0  0  0  0
 25 26  1  0  0  0  0
 25 45  1  0  0  0  0
 25 46  1  0  0  0  0
 26 27  1  0  0  0  0
 26 47  1  0  0  0  0
 26 48  1  0  0  0  0
 27 28  1  0  0  0  0
 27 49  1  0  0  0  0
 27 50  1  0  0  0  0
 28 29  1  0  0  0  0
 28 51  1  0  0  0  0
 28 52  1  0  0  0  0
 29 30  1  0  0  0  0
 29 53  1  0  0  0  0
 29 54  1  0  0  0  0
 30 55  1  0  0  0  0
 30 56  1  0  0  0  0
M  CHG  1  57  -1
M  END
$$$$
ZINC02767147
  -OEChem-08230709463D

 51 53  0     1  0  0  0  0  0999 V2000
   -2.3942    4.1273    0.3151 C   0  0  0  0  0  0  0  0  0  0  0  0
   -1.1050    3.3494    0.2511 C   0  0  0  0  0  0  0  0  0  0  0  0
    0.1056    4.0188    0.2749 C   0  0  0  0  0  0  0  0  0  0  0  0
    1.2891    3.3119    0.2166 C   0  0  0  0  0  0  0  0  0  0  0  0
    1.2634    1.9202    0.1335 C   0  0  0  0  0  0  0  0  0  0  0  0
    0.0405    1.2513    0.1099 C   0  0  0  0  0  0  0  0  0  0  0  0
   -1.1369    1.9694    0.1635 C   0  0  0  0  0  0  0  0  0  0  0  0
   -2.4597    1.2481    0.1324 C   0  0  0  0  0  0  0  0  0  0  0  0
    2.5313    1.1550    0.0711 C   0  0  0  0  0  0  0  0  0  0  0  0
    2.7674    0.0998    0.8917 C   0  0  0  0  0  0  0  0  0  0  0  0
    4.3937   -0.4398    0.4077 S   0  0  0  0  0  0  0  0  0  0  0  0
    4.7257    0.7115   -0.8415 C   0  0  0  0  0  0  0  0  0  0  0  0
    3.5785    1.4933   -0.8742 C   0  0  0  0  0  0  0  0  0  0  0  0
    3.4351    2.6066   -1.8123 C   0  0  0  0  0  0  0  0  0  0  0  0
    3.8041    3.7213   -1.4943 O   0  0  0  0  0  0  0  0  0  0  0  0
    2.8937    2.3971   -3.0300 O   0  0  0  0  0  0  0  0  0  0  0  0
    2.7825    3.5476   -3.9087 C   0  0  0  0  0  0  0  0  0  0  0  0
    5.8628    0.8231   -1.6256 N   0  0  0  0  0  0  0  0  0  0  0  0
    6.8863   -0.0371   -1.4546 C   0  0  0  0  0  0  0  0  0  0  0  0
    6.8120   -0.9086   -0.6146 O   0  0  0  0  0  0  0  0  0  0  0  0
    8.1229    0.0842   -2.3074 C   0  0  1  0  0  0  0  0  0  0  0  0
    8.1842    1.0901   -2.7228 H   0  0  0  0  0  0  0  0  0  0  0  0
    9.3636   -0.1978   -1.4572 C   0  0  0  0  0  0  0  0  0  0  0  0
    9.4218   -1.6527   -1.0944 C   0  0  0  0  0  0  0  0  0  0  0  0
    8.7458   -2.5780   -1.6965 C   0  0  0  0  0  0  0  0  0  0  0  0
    7.8021   -2.3237   -2.8353 C   0  0  0  0  0  0  0  0  0  0  0  0
    8.0689   -0.9452   -3.4433 C   0  0  1  0  0  0  0  0  0  0  0  0
    9.0215   -0.9567   -3.9729 H   0  0  0  0  0  0  0  0  0  0  0  0
    6.9583   -0.5888   -4.3976 C   0  0  0  0  0  0  0  0  0  0  0  0
    6.2770    0.3881   -4.1939 O   0  0  0  0  0  0  0  0  0  0  0  0
   -2.7188    4.3763   -0.6952 H   0  0  0  0  0  0  0  0  0  0  0  0
   -3.1588    3.5238    0.8040 H   0  0  0  0  0  0  0  0  0  0  0  0
   -2.2372    5.0445    0.8827 H   0  0  0  0  0  0  0  0  0  0  0  0
    0.1243    5.0967    0.3388 H   0  0  0  0  0  0  0  0  0  0  0  0
    2.2335    3.8355    0.2348 H   0  0  0  0  0  0  0  0  0  0  0  0
    0.0145    0.1735    0.0453 H   0  0  0  0  0  0  0  0  0  0  0  0
   -2.7694    1.0129    1.1506 H   0  0  0  0  0  0  0  0  0  0  0  0
   -3.2095    1.8845   -0.3376 H   0  0  0  0  0  0  0  0  0  0  0  0
   -2.3570    0.3253   -0.4385 H   0  0  0  0  0  0  0  0  0  0  0  0
    2.1240   -0.3127    1.6548 H   0  0  0  0  0  0  0  0  0  0  0  0
    2.1578    4.3061   -3.4370 H   0  0  0  0  0  0  0  0  0  0  0  0
    3.7744    3.9590   -4.0960 H   0  0  0  0  0  0  0  0  0  0  0  0
    2.3319    3.2415   -4.8528 H   0  0  0  0  0  0  0  0  0  0  0  0
    5.9222    1.5202   -2.2974 H   0  0  0  0  0  0  0  0  0  0  0  0
   10.2568    0.0698   -2.0217 H   0  0  0  0  0  0  0  0  0  0  0  0
    9.3202    0.3984   -0.5457 H   0  0  0  0  0  0  0  0  0  0  0  0
   10.0682   -1.9462   -0.2804 H   0  0  0  0  0  0  0  0  0  0  0  0
    8.8688   -3.5963   -1.3585 H   0  0  0  0  0  0  0  0  0  0  0  0
    7.9428   -3.0889   -3.5988 H   0  0  0  0  0  0  0  0  0  0  0  0
    6.7759   -2.3648   -2.4702 H   0  0  0  0  0  0  0  0  0  0  0  0
    6.7261   -1.3565   -5.4739 O   0  5  0  0  0  0  0  0  0  0  0  0
  1  2  1  0  0  0  0
  1 31  1  0  0  0  0
  1 32  1  0  0  0  0
  1 33  1  0  0  0  0
  2  7  2  0  0  0  0
  2  3  1  0  0  0  0
  3  4  2  0  0  0  0
  3 34  1  0  0  0  0
  4  5  1  0  0  0  0
  4 35  1  0  0  0  0
  5  6  2  0  0  0  0
  5  9  1  0  0  0  0
  6  7  1  0  0  0  0
  6 36  1  0  0  0  0
  7  8  1  0  0  0  0
  8 37  1  0  0  0  0
  8 38  1  0  0  0  0
  8 39  1  0  0  0  0
  9 13  1  0  0  0  0
  9 10  2  0  0  0  0
 10 11  1  0  0  0  0
 10 40  1  0  0  0  0
 11 12  1  0  0  0  0
 12 13  2  0  0  0  0
 12 18  1  0  0  0  0
 13 14  1  0  0  0  0
 14 15  2  0  0  0  0
 14 16  1  0  0  0  0
 16 17  1  0  0  0  0
 17 41  1  0  0  0  0
 17 42  1  0  0  0  0
 17 43  1  0  0  0  0
 18 19  1  0  0  0  0
 18 44  1  0  0  0  0
 19 20  2  0  0  0  0
 19 21  1  0  0  0  0
 21 22  1  0  0  0  0
 21 27  1  0  0  0  0
 21 23  1  0  0  0  0
 23 24  1  0  0  0  0
 23 45  1  0  0  0  0
 23 46  1  0  0  0  0
 24 25  2  0  0  0  0
 24 47  1  0  0  0  0
 25 26  1  0  0  0  0
 25 48  1  0  0  0  0
 26 27  1  0  0  0  0
 26 49  1  0  0  0  0
 26 50  1  0  0  0  0
 27 28  1  0  0  0  0
 27 29  1  0  0  0  0
 29 30  2  0  0  0  0
 29 51  1  0  0  0  0
M  CHG  1  51  -1
M  END
$$$$
ZINC02767148
  -OEChem-08230709463D

 51 53  0     1  0  0  0  0  0999 V2000
   10.2226    2.5477   -0.0840 C   0  0  0  0  0  0  0  0  0  0  0  0
    8.7861    2.0923   -0.0719 C   0  0  0  0  0  0  0  0  0  0  0  0
    7.8871    2.6236   -0.9795 C   0  0  0  0  0  0  0  0  0  0  0  0
    6.5721    2.2059   -0.9773 C   0  0  0  0  0  0  0  0  0  0  0  0
    6.1472    1.2548   -0.0504 C   0  0  0  0  0  0  0  0  0  0  0  0
    7.0575    0.7230    0.8617 C   0  0  0  0  0  0  0  0  0  0  0  0
    8.3717    1.1444    0.8462 C   0  0  0  0  0  0  0  0  0  0  0  0
    9.3569    0.5708    1.8318 C   0  0  0  0  0  0  0  0  0  0  0  0
    4.7343    0.8065   -0.0388 C   0  0  0  0  0  0  0  0  0  0  0  0
    4.4051   -0.5104   -0.0428 C   0  0  0  0  0  0  0  0  0  0  0  0
    2.6249   -0.4876   -0.0180 S   0  0  0  0  0  0  0  0  0  0  0  0
    2.3528    1.2218   -0.0138 C   0  0  0  0  0  0  0  0  0  0  0  0
    3.6355    1.7536   -0.0232 C   0  0  0  0  0  0  0  0  0  0  0  0
    3.8674    3.1980   -0.0172 C   0  0  0  0  0  0  0  0  0  0  0  0
    3.9736    3.7926    1.0388 O   0  0  0  0  0  0  0  0  0  0  0  0
    3.9635    3.8705   -1.1826 O   0  0  0  0  0  0  0  0  0  0  0  0
    4.1941    5.3018   -1.1007 C   0  0  0  0  0  0  0  0  0  0  0  0
    1.1435    1.8983    0.0013 N   0  0  0  0  0  0  0  0  0  0  0  0
   -0.0144    1.2086    0.0087 C   0  0  0  0  0  0  0  0  0  0  0  0
    0.0021   -0.0041    0.0020 O   0  0  0  0  0  0  0  0  0  0  0  0
   -1.3296    1.9443    0.0189 C   0  0  2  0  0  0  0  0  0  0  0  0
   -1.3997    2.5816   -0.8626 H   0  0  0  0  0  0  0  0  0  0  0  0
   -1.4320    2.7972    1.2852 C   0  0  0  0  0  0  0  0  0  0  0  0
   -2.8286    3.3235    1.4424 C   0  0  0  0  0  0  0  0  0  0  0  0
   -3.8582    2.8445    0.8212 C   0  0  0  0  0  0  0  0  0  0  0  0
   -3.7978    1.7026   -0.1506 C   0  0  0  0  0  0  0  0  0  0  0  0
   -2.4848    0.9352    0.0189 C   0  0  1  0  0  0  0  0  0  0  0  0
   -2.4972    0.3923    0.9640 H   0  0  0  0  0  0  0  0  0  0  0  0
   -2.3096   -0.0354   -1.1205 C   0  0  0  0  0  0  0  0  0  0  0  0
   -1.3592    0.0658   -1.8596 O   0  0  0  0  0  0  0  0  0  0  0  0
   10.8001    1.9106   -0.7537 H   0  0  0  0  0  0  0  0  0  0  0  0
   10.2736    3.5799   -0.4306 H   0  0  0  0  0  0  0  0  0  0  0  0
   10.6330    2.4821    0.9237 H   0  0  0  0  0  0  0  0  0  0  0  0
    8.2165    3.3632   -1.6943 H   0  0  0  0  0  0  0  0  0  0  0  0
    5.8723    2.6178   -1.6894 H   0  0  0  0  0  0  0  0  0  0  0  0
    6.7349   -0.0169    1.5792 H   0  0  0  0  0  0  0  0  0  0  0  0
    9.8262   -0.3146    1.4030 H   0  0  0  0  0  0  0  0  0  0  0  0
   10.1215    1.3147    2.0559 H   0  0  0  0  0  0  0  0  0  0  0  0
    8.8358    0.2976    2.7493 H   0  0  0  0  0  0  0  0  0  0  0  0
    5.0642   -1.3658   -0.0537 H   0  0  0  0  0  0  0  0  0  0  0  0
    3.3737    5.7715   -0.5582 H   0  0  0  0  0  0  0  0  0  0  0  0
    5.1310    5.4894   -0.5761 H   0  0  0  0  0  0  0  0  0  0  0  0
    4.2509    5.7188   -2.1061 H   0  0  0  0  0  0  0  0  0  0  0  0
    1.1304    2.8682    0.0067 H   0  0  0  0  0  0  0  0  0  0  0  0
   -1.1754    2.1888    2.1524 H   0  0  0  0  0  0  0  0  0  0  0  0
   -0.7365    3.6336    1.2147 H   0  0  0  0  0  0  0  0  0  0  0  0
   -2.9841    4.1536    2.1155 H   0  0  0  0  0  0  0  0  0  0  0  0
   -4.8207    3.2950    1.0141 H   0  0  0  0  0  0  0  0  0  0  0  0
   -3.8612    2.0899   -1.1675 H   0  0  0  0  0  0  0  0  0  0  0  0
   -4.6357    1.0301    0.0327 H   0  0  0  0  0  0  0  0  0  0  0  0
   -3.2095   -1.0125   -1.3142 O   0  5  0  0  0  0  0  0  0  0  0  0
  1  2  1  0  0  0  0
  1 31  1  0  0  0  0
  1 32  1  0  0  0  0
  1 33  1  0  0  0  0
  2  7  2  0  0  0  0
  2  3  1  0  0  0  0
  3  4  2  0  0  0  0
  3 34  1  0  0  0  0
  4  5  1  0  0  0  0
  4 35  1  0  0  0  0
  5  6  2  0  0  0  0
  5  9  1  0  0  0  0
  6  7  1  0  0  0  0
  6 36  1  0  0  0  0
  7  8  1  0  0  0  0
  8 37  1  0  0  0  0
  8 38  1  0  0  0  0
  8 39  1  0  0  0  0
  9 13  1  0  0  0  0
  9 10  2  0  0  0  0
 10 11  1  0  0  0  0
 10 40  1  0  0  0  0
 11 12  1  0  0  0  0
 12 13  2  0  0  0  0
 12 18  1  0  0  0  0
 13 14  1  0  0  0  0
 14 15  2  0  0  0  0
 14 16  1  0  0  0  0
 16 17  1  0  0  0  0
 17 41  1  0  0  0  0
 17 42  1  0  0  0  0
 17 43  1  0  0  0  0
 18 19  1  0  0  0  0
 18 44  1  0  0  0  0
 19 20  2  0  0  0  0
 19 21  1  0  0  0  0
 21 22  1  0  0  0  0
 21 27  1  0  0  0  0
 21 23  1  0  0  0  0
 23 24  1  0  0  0  0
 23 45  1  0  0  0  0
 23 46  1  0  0  0  0
 24 25  2  0  0  0  0
 24 47  1  0  0  0  0
 25 26  1  0  0  0  0
 25 48  1  0  0  0  0
 26 27  1  0  0  0  0
 26 49  1  0  0  0  0
 26 50  1  0  0  0  0
 27 28  1  0  0  0  0
 27 29  1  0  0  0  0
 29 30  2  0  0  0  0
 29 51  1  0  0  0  0
M  CHG  1  51  -1
M  END
$$$$
ZINC02767149
  -OEChem-08230709463D

 51 53  0     1  0  0  0  0  0999 V2000
    7.9826    0.0322   -0.0719 C   0  0  0  0  0  0  0  0  0  0  0  0
    6.4895    0.2359   -0.0573 C   0  0  0  0  0  0  0  0  0  0  0  0
    5.7109   -0.4396    0.8656 C   0  0  0  0  0  0  0  0  0  0  0  0
    4.3441   -0.2524    0.8877 C   0  0  0  0  0  0  0  0  0  0  0  0
    3.7464    0.6108   -0.0300 C   0  0  0  0  0  0  0  0  0  0  0  0
    4.5361    1.2887   -0.9575 C   0  0  0  0  0  0  0  0  0  0  0  0
    5.9030    1.0978   -0.9663 C   0  0  0  0  0  0  0  0  0  0  0  0
    6.7580    1.8294   -1.9686 C   0  0  0  0  0  0  0  0  0  0  0  0
    2.2779    0.8115   -0.0153 C   0  0  0  0  0  0  0  0  0  0  0  0
    1.7289    2.0529   -0.0034 C   0  0  0  0  0  0  0  0  0  0  0  0
   -0.0214    1.7268    0.0115 S   0  0  0  0  0  0  0  0  0  0  0  0
    0.0021   -0.0041    0.0020 C   0  0  0  0  0  0  0  0  0  0  0  0
    1.3567   -0.3092   -0.0126 C   0  0  0  0  0  0  0  0  0  0  0  0
    1.8314   -1.6928   -0.0250 C   0  0  0  0  0  0  0  0  0  0  0  0
    2.0185   -2.2622   -1.0836 O   0  0  0  0  0  0  0  0  0  0  0  0
    2.0619   -2.3373    1.1375 O   0  0  0  0  0  0  0  0  0  0  0  0
    2.5318   -3.7083    1.0492 C   0  0  0  0  0  0  0  0  0  0  0  0
   -1.0742   -0.8769    0.0072 N   0  0  0  0  0  0  0  0  0  0  0  0
   -2.3327   -0.3949    0.0219 C   0  0  0  0  0  0  0  0  0  0  0  0
   -2.5232    0.8028    0.0305 O   0  0  0  0  0  0  0  0  0  0  0  0
   -3.5031   -1.3441    0.0275 C   0  0  1  0  0  0  0  0  0  0  0  0
   -3.4686   -1.9736   -0.8617 H   0  0  0  0  0  0  0  0  0  0  0  0
   -3.4514   -2.2171    1.2833 C   0  0  0  0  0  0  0  0  0  0  0  0
   -4.7369   -2.9756    1.4388 C   0  0  0  0  0  0  0  0  0  0  0  0
   -5.8367   -2.6719    0.8275 C   0  0  0  0  0  0  0  0  0  0  0  0
   -5.9774   -1.5250   -0.1301 C   0  0  0  0  0  0  0  0  0  0  0  0
   -4.8135   -0.5469    0.0445 C   0  0  2  0  0  0  0  0  0  0  0  0
   -4.9128   -0.0254    0.9964 H   0  0  0  0  0  0  0  0  0  0  0  0
   -4.8128    0.4528   -1.0832 C   0  0  0  0  0  0  0  0  0  0  0  0
   -3.8633    0.5239   -1.8269 O   0  0  0  0  0  0  0  0  0  0  0  0
    8.4550    0.7596    0.5883 H   0  0  0  0  0  0  0  0  0  0  0  0
    8.2152   -0.9756    0.2721 H   0  0  0  0  0  0  0  0  0  0  0  0
    8.3576    0.1653   -1.0867 H   0  0  0  0  0  0  0  0  0  0  0  0
    6.1744   -1.1111    1.5731 H   0  0  0  0  0  0  0  0  0  0  0  0
    3.7378   -0.7765    1.6117 H   0  0  0  0  0  0  0  0  0  0  0  0
    4.0792    1.9616   -1.6679 H   0  0  0  0  0  0  0  0  0  0  0  0
    7.0769    2.7826   -1.5470 H   0  0  0  0  0  0  0  0  0  0  0  0
    7.6341    1.2265   -2.2077 H   0  0  0  0  0  0  0  0  0  0  0  0
    6.1814    2.0083   -2.8762 H   0  0  0  0  0  0  0  0  0  0  0  0
    2.2325    3.0083   -0.0031 H   0  0  0  0  0  0  0  0  0  0  0  0
    2.6769   -4.1080    2.0528 H   0  0  0  0  0  0  0  0  0  0  0  0
    1.7938   -4.3120    0.5209 H   0  0  0  0  0  0  0  0  0  0  0  0
    3.4773   -3.7342    0.5075 H   0  0  0  0  0  0  0  0  0  0  0  0
   -0.9217   -1.8348    0.0003 H   0  0  0  0  0  0  0  0  0  0  0  0
   -2.6240   -2.9217    1.1997 H   0  0  0  0  0  0  0  0  0  0  0  0
   -3.2974   -1.5841    2.1572 H   0  0  0  0  0  0  0  0  0  0  0  0
   -4.7448   -3.8280    2.1019 H   0  0  0  0  0  0  0  0  0  0  0  0
   -6.7073   -3.2817    1.0186 H   0  0  0  0  0  0  0  0  0  0  0  0
   -6.9168   -1.0068    0.0624 H   0  0  0  0  0  0  0  0  0  0  0  0
   -5.9796   -1.9053   -1.1515 H   0  0  0  0  0  0  0  0  0  0  0  0
   -5.8671    1.2643   -1.2613 O   0  5  0  0  0  0  0  0  0  0  0  0
  1  2  1  0  0  0  0
  1 31  1  0  0  0  0
  1 32  1  0  0  0  0
  1 33  1  0  0  0  0
  2  7  2  0  0  0  0
  2  3  1  0  0  0  0
  3  4  2  0  0  0  0
  3 34  1  0  0  0  0
  4  5  1  0  0  0  0
  4 35  1  0  0  0  0
  5  6  2  0  0  0  0
  5  9  1  0  0  0  0
  6  7  1  0  0  0  0
  6 36  1  0  0  0  0
  7  8  1  0  0  0  0
  8 37  1  0  0  0  0
  8 38  1  0  0  0  0
  8 39  1  0  0  0  0
  9 13  1  0  0  0  0
  9 10  2  0  0  0  0
 10 11  1  0  0  0  0
 10 40  1  0  0  0  0
 11 12  1  0  0  0  0
 12 13  2  0  0  0  0
 12 18  1  0  0  0  0
 13 14  1  0  0  0  0
 14 15  2  0  0  0  0
 14 16  1  0  0  0  0
 16 17  1  0  0  0  0
 17 41  1  0  0  0  0
 17 42  1  0  0  0  0
 17 43  1  0  0  0  0
 18 19  1  0  0  0  0
 18 44  1  0  0  0  0
 19 20  2  0  0  0  0
 19 21  1  0  0  0  0
 21 22  1  0  0  0  0
 21 27  1  0  0  0  0
 21 23  1  0  0  0  0
 23 24  1  0  0  0  0
 23 45  1  0  0  0  0
 23 46  1  0  0  0  0
 24 25  2  0  0  0  0
 24 47  1  0  0  0  0
 25 26  1  0  0  0  0
 25 48  1  0  0  0  0
 26 27  1  0  0  0  0
 26 49  1  0  0  0  0
 26 50  1  0  0  0  0
 27 28  1  0  0  0  0
 27 29  1  0  0  0  0
 29 30  2  0  0  0  0
 29 51  1  0  0  0  0
M  CHG  1  51  -1
M  END
$$$$
ZINC02767150
  -OEChem-08230709463D

 51 53  0     1  0  0  0  0  0999 V2000
   -6.3790   -8.3650   -2.9699 C   0  0  0  0  0  0  0  0  0  0  0  0
   -6.0014   -6.9271   -2.7229 C   0  0  0  0  0  0  0  0  0  0  0  0
   -5.0761   -6.3069   -3.5435 C   0  0  0  0  0  0  0  0  0  0  0  0
   -4.7262   -4.9908   -3.3220 C   0  0  0  0  0  0  0  0  0  0  0  0
   -5.3072   -4.2856   -2.2686 C   0  0  0  0  0  0  0  0  0  0  0  0
   -6.2346   -4.9175   -1.4416 C   0  0  0  0  0  0  0  0  0  0  0  0
   -6.5810   -6.2327   -1.6765 C   0  0  0  0  0  0  0  0  0  0  0  0
   -7.5885   -6.9153   -0.7876 C   0  0  0  0  0  0  0  0  0  0  0  0
   -4.9355   -2.8715   -2.0254 C   0  0  0  0  0  0  0  0  0  0  0  0
   -5.8757   -1.9053   -1.8667 C   0  0  0  0  0  0  0  0  0  0  0  0
   -4.9097   -0.4332   -1.6021 S   0  0  0  0  0  0  0  0  0  0  0  0
   -3.3173   -1.1027   -1.7131 C   0  0  0  0  0  0  0  0  0  0  0  0
   -3.5491   -2.4520   -1.9448 C   0  0  0  0  0  0  0  0  0  0  0  0
   -2.4492   -3.4040   -2.0996 C   0  0  0  0  0  0  0  0  0  0  0  0
   -1.9987   -3.9766   -1.1254 O   0  0  0  0  0  0  0  0  0  0  0  0
   -1.9344   -3.6469   -3.3226 O   0  0  0  0  0  0  0  0  0  0  0  0
   -0.8447   -4.6033   -3.4011 C   0  0  0  0  0  0  0  0  0  0  0  0
   -2.1013   -0.4490   -1.5932 N   0  0  0  0  0  0  0  0  0  0  0  0
   -2.0697    0.8791   -1.3665 C   0  0  0  0  0  0  0  0  0  0  0  0
   -3.1054    1.5022   -1.2673 O   0  0  0  0  0  0  0  0  0  0  0  0
   -0.7473    1.5900   -1.2361 C   0  0  2  0  0  0  0  0  0  0  0  0
    0.0316    0.8711   -0.9818 H   0  0  0  0  0  0  0  0  0  0  0  0
   -0.8415    2.6551   -0.1415 C   0  0  0  0  0  0  0  0  0  0  0  0
   -1.7195    3.7838   -0.5966 C   0  0  0  0  0  0  0  0  0  0  0  0
   -2.0414    4.0029   -1.8291 C   0  0  0  0  0  0  0  0  0  0  0  0
   -1.5939    3.1479   -2.9784 C   0  0  0  0  0  0  0  0  0  0  0  0
   -0.4022    2.2839   -2.5599 C   0  0  2  0  0  0  0  0  0  0  0  0
    0.4774    2.9134   -2.4252 H   0  0  0  0  0  0  0  0  0  0  0  0
   -0.1260    1.2473   -3.6183 C   0  0  0  0  0  0  0  0  0  0  0  0
   -0.1967    0.0723   -3.3461 O   0  0  0  0  0  0  0  0  0  0  0  0
   -5.7123   -9.0176   -2.4063 H   0  0  0  0  0  0  0  0  0  0  0  0
   -7.4072   -8.5310   -2.6486 H   0  0  0  0  0  0  0  0  0  0  0  0
   -6.2905   -8.5863   -4.0336 H   0  0  0  0  0  0  0  0  0  0  0  0
   -4.6265   -6.8542   -4.3589 H   0  0  0  0  0  0  0  0  0  0  0  0
   -4.0040   -4.5076   -3.9634 H   0  0  0  0  0  0  0  0  0  0  0  0
   -6.6845   -4.3777   -0.6215 H   0  0  0  0  0  0  0  0  0  0  0  0
   -7.0739   -7.3865    0.0498 H   0  0  0  0  0  0  0  0  0  0  0  0
   -8.2979   -6.1789   -0.4101 H   0  0  0  0  0  0  0  0  0  0  0  0
   -8.1224   -7.6742   -1.3595 H   0  0  0  0  0  0  0  0  0  0  0  0
   -6.9507   -2.0060   -1.8908 H   0  0  0  0  0  0  0  0  0  0  0  0
   -0.5249   -4.7054   -4.4381 H   0  0  0  0  0  0  0  0  0  0  0  0
   -0.0088   -4.2521   -2.7960 H   0  0  0  0  0  0  0  0  0  0  0  0
   -1.1823   -5.5702   -3.0281 H   0  0  0  0  0  0  0  0  0  0  0  0
   -1.2729   -0.9474   -1.6725 H   0  0  0  0  0  0  0  0  0  0  0  0
   -1.2630    2.2104    0.7600 H   0  0  0  0  0  0  0  0  0  0  0  0
    0.1553    3.0382    0.0767 H   0  0  0  0  0  0  0  0  0  0  0  0
   -2.1063    4.4584    0.1528 H   0  0  0  0  0  0  0  0  0  0  0  0
   -2.6725    4.8522   -2.0455 H   0  0  0  0  0  0  0  0  0  0  0  0
   -1.3019    3.7868   -3.8118 H   0  0  0  0  0  0  0  0  0  0  0  0
   -2.4164    2.5032   -3.2883 H   0  0  0  0  0  0  0  0  0  0  0  0
    0.1987    1.6295   -4.8634 O   0  5  0  0  0  0  0  0  0  0  0  0
  1  2  1  0  0  0  0
  1 31  1  0  0  0  0
  1 32  1  0  0  0  0
  1 33  1  0  0  0  0
  2  7  2  0  0  0  0
  2  3  1  0  0  0  0
  3  4  2  0  0  0  0
  3 34  1  0  0  0  0
  4  5  1  0  0  0  0
  4 35  1  0  0  0  0
  5  6  2  0  0  0  0
  5  9  1  0  0  0  0
  6  7  1  0  0  0  0
  6 36  1  0  0  0  0
  7  8  1  0  0  0  0
  8 37  1  0  0  0  0
  8 38  1  0  0  0  0
  8 39  1  0  0  0  0
  9 13  1  0  0  0  0
  9 10  2  0  0  0  0
 10 11  1  0  0  0  0
 10 40  1  0  0  0  0
 11 12  1  0  0  0  0
 12 13  2  0  0  0  0
 12 18  1  0  0  0  0
 13 14  1  0  0  0  0
 14 15  2  0  0  0  0
 14 16  1  0  0  0  0
 16 17  1  0  0  0  0
 17 41  1  0  0  0  0
 17 42  1  0  0  0  0
 17 43  1  0  0  0  0
 18 19  1  0  0  0  0
 18 44  1  0  0  0  0
 19 20  2  0  0  0  0
 19 21  1  0  0  0  0
 21 22  1  0  0  0  0
 21 27  1  0  0  0  0
 21 23  1  0  0  0  0
 23 24  1  0  0  0  0
 23 45  1  0  0  0  0
 23 46  1  0  0  0  0
 24 25  2  0  0  0  0
 24 47  1  0  0  0  0
 25 26  1  0  0  0  0
 25 48  1  0  0  0  0
 26 27  1  0  0  0  0
 26 49  1  0  0  0  0
 26 50  1  0  0  0  0
 27 28  1  0  0  0  0
 27 29  1  0  0  0  0
 29 30  2  0  0  0  0
 29 51  1  0  0  0  0
M  CHG  1  51  -1
M  END
$$$$
ZINC02767824
  -OEChem-08230709463D

 53 55  0     1  0  0  0  0  0999 V2000
   -6.4714   -0.1407    0.0283 C   0  0  0  0  0  0  0  0  0  0  0  0
   -5.0625    0.3942    0.0253 C   0  0  0  0  0  0  0  0  0  0  0  0
   -4.6883    1.3550    0.9479 C   0  0  0  0  0  0  0  0  0  0  0  0
   -3.3985    1.8450    0.9531 C   0  0  0  0  0  0  0  0  0  0  0  0
   -2.4742    1.3773    0.0196 C   0  0  0  0  0  0  0  0  0  0  0  0
   -2.8569    0.4089   -0.9072 C   0  0  0  0  0  0  0  0  0  0  0  0
   -4.1485   -0.0776   -0.8994 C   0  0  0  0  0  0  0  0  0  0  0  0
   -4.5638   -1.1245   -1.9006 C   0  0  0  0  0  0  0  0  0  0  0  0
   -1.0885    1.9035    0.0167 C   0  0  0  0  0  0  0  0  0  0  0  0
   -0.0126    1.0758    0.0080 C   0  0  0  0  0  0  0  0  0  0  0  0
    1.3686    2.1994    0.0008 S   0  0  0  0  0  0  0  0  0  0  0  0
    0.5202    3.7082    0.0159 C   0  0  0  0  0  0  0  0  0  0  0  0
   -0.8153    3.3282    0.0263 C   0  0  0  0  0  0  0  0  0  0  0  0
   -1.8941    4.3162    0.0406 C   0  0  0  0  0  0  0  0  0  0  0  0
   -2.3518    4.7322   -1.0070 O   0  0  0  0  0  0  0  0  0  0  0  0
   -2.3812    4.7661    1.2153 O   0  0  0  0  0  0  0  0  0  0  0  0
   -3.4511    5.7458    1.1535 C   0  0  0  0  0  0  0  0  0  0  0  0
    1.0479    4.9895    0.0174 N   0  0  0  0  0  0  0  0  0  0  0  0
    2.3838    5.1681    0.0065 C   0  0  0  0  0  0  0  0  0  0  0  0
    3.1240    4.2074   -0.0045 O   0  0  0  0  0  0  0  0  0  0  0  0
    2.9577    6.5615    0.0081 C   0  0  1  0  0  0  0  0  0  0  0  0
    2.6132    7.0973   -0.8764 H   0  0  0  0  0  0  0  0  0  0  0  0
    2.4960    7.3019    1.2649 C   0  0  0  0  0  0  0  0  0  0  0  0
    2.9796    6.5497    2.5064 C   0  0  0  0  0  0  0  0  0  0  0  0
    4.5075    6.4720    2.4927 C   0  0  0  0  0  0  0  0  0  0  0  0
    4.9692    5.7317    1.2358 C   0  0  0  0  0  0  0  0  0  0  0  0
    4.4856    6.4838   -0.0057 C   0  0  1  0  0  0  0  0  0  0  0  0
    4.9008    7.4916   -0.0046 H   0  0  0  0  0  0  0  0  0  0  0  0
    4.9404    5.7546   -1.2436 C   0  0  0  0  0  0  0  0  0  0  0  0
    4.1260    5.3396   -2.0338 O   0  0  0  0  0  0  0  0  0  0  0  0
   -6.5290   -1.0088    0.6849 H   0  0  0  0  0  0  0  0  0  0  0  0
   -7.1524    0.6314    0.3862 H   0  0  0  0  0  0  0  0  0  0  0  0
   -6.7517   -0.4316   -0.9841 H   0  0  0  0  0  0  0  0  0  0  0  0
   -5.4061    1.7192    1.6680 H   0  0  0  0  0  0  0  0  0  0  0  0
   -3.1064    2.5922    1.6761 H   0  0  0  0  0  0  0  0  0  0  0  0
   -2.1443    0.0403   -1.6302 H   0  0  0  0  0  0  0  0  0  0  0  0
   -4.3816   -2.1161   -1.4862 H   0  0  0  0  0  0  0  0  0  0  0  0
   -5.6250   -1.0133   -2.1236 H   0  0  0  0  0  0  0  0  0  0  0  0
   -3.9853   -1.0014   -2.8162 H   0  0  0  0  0  0  0  0  0  0  0  0
    0.0021   -0.0041    0.0020 H   0  0  0  0  0  0  0  0  0  0  0  0
   -3.7495    6.0222    2.1647 H   0  0  0  0  0  0  0  0  0  0  0  0
   -3.1024    6.6316    0.6226 H   0  0  0  0  0  0  0  0  0  0  0  0
   -4.3046    5.3189    0.6267 H   0  0  0  0  0  0  0  0  0  0  0  0
    0.4559    5.7578    0.0262 H   0  0  0  0  0  0  0  0  0  0  0  0
    2.9111    8.3097    1.2660 H   0  0  0  0  0  0  0  0  0  0  0  0
    1.4074    7.3572    1.2747 H   0  0  0  0  0  0  0  0  0  0  0  0
    2.5644    5.5419    2.5053 H   0  0  0  0  0  0  0  0  0  0  0  0
    2.6506    7.0772    3.4018 H   0  0  0  0  0  0  0  0  0  0  0  0
    4.8520    5.9362    3.3772 H   0  0  0  0  0  0  0  0  0  0  0  0
    4.9226    7.4799    2.4938 H   0  0  0  0  0  0  0  0  0  0  0  0
    4.5541    4.7238    1.2347 H   0  0  0  0  0  0  0  0  0  0  0  0
    6.0578    5.6763    1.2260 H   0  0  0  0  0  0  0  0  0  0  0  0
    6.2503    5.5661   -1.4684 O   0  5  0  0  0  0  0  0  0  0  0  0
  1  2  1  0  0  0  0
  1 31  1  0  0  0  0
  1 32  1  0  0  0  0
  1 33  1  0  0  0  0
  2  7  2  0  0  0  0
  2  3  1  0  0  0  0
  3  4  2  0  0  0  0
  3 34  1  0  0  0  0
  4  5  1  0  0  0  0
  4 35  1  0  0  0  0
  5  6  2  0  0  0  0
  5  9  1  0  0  0  0
  6  7  1  0  0  0  0
  6 36  1  0  0  0  0
  7  8  1  0  0  0  0
  8 37  1  0  0  0  0
  8 38  1  0  0  0  0
  8 39  1  0  0  0  0
  9 13  1  0  0  0  0
  9 10  2  0  0  0  0
 10 11  1  0  0  0  0
 10 40  1  0  0  0  0
 11 12  1  0  0  0  0
 12 13  2  0  0  0  0
 12 18  1  0  0  0  0
 13 14  1  0  0  0  0
 14 15  2  0  0  0  0
 14 16  1  0  0  0  0
 16 17  1  0  0  0  0
 17 41  1  0  0  0  0
 17 42  1  0  0  0  0
 17 43  1  0  0  0  0
 18 19  1  0  0  0  0
 18 44  1  0  0  0  0
 19 20  2  0  0  0  0
 19 21  1  0  0  0  0
 21 22  1  0  0  0  0
 21 27  1  0  0  0  0
 21 23  1  0  0  0  0
 23 24  1  0  0  0  0
 23 45  1  0  0  0  0
 23 46  1  0  0  0  0
 24 25  1  0  0  0  0
 24 47  1  0  0  0  0
 24 48  1  0  0  0  0
 25 26  1  0  0  0  0
 25 49  1  0  0  0  0
 25 50  1  0  0  0  0
 26 27  1  0  0  0  0
 26 51  1  0  0  0  0
 26 52  1  0  0  0  0
 27 28  1  0  0  0  0
 27 29  1  0  0  0  0
 29 30  2  0  0  0  0
 29 53  1  0  0  0  0
M  CHG  1  53  -1
M  END
$$$$
ZINC02767825
  -OEChem-08230709463D

 53 55  0     1  0  0  0  0  0999 V2000
   -2.5129    0.9743    0.0188 C   0  0  0  0  0  0  0  0  0  0  0  0
   -1.2208    1.7499    0.0174 C   0  0  0  0  0  0  0  0  0  0  0  0
   -0.0126    1.0758    0.0080 C   0  0  0  0  0  0  0  0  0  0  0  0
    1.1736    1.7805    0.0004 C   0  0  0  0  0  0  0  0  0  0  0  0
    1.1531    3.1748    0.0081 C   0  0  0  0  0  0  0  0  0  0  0  0
   -0.0673    3.8484    0.0234 C   0  0  0  0  0  0  0  0  0  0  0  0
   -1.2474    3.1327    0.0308 C   0  0  0  0  0  0  0  0  0  0  0  0
   -2.5675    3.8594    0.0478 C   0  0  0  0  0  0  0  0  0  0  0  0
    2.4239    3.9377   -0.0004 C   0  0  0  0  0  0  0  0  0  0  0  0
    2.6456    4.9420   -0.8862 C   0  0  0  0  0  0  0  0  0  0  0  0
    4.2820    5.5047   -0.4666 S   0  0  0  0  0  0  0  0  0  0  0  0
    4.6403    4.4216    0.8353 C   0  0  0  0  0  0  0  0  0  0  0  0
    3.4944    3.6436    0.9336 C   0  0  0  0  0  0  0  0  0  0  0  0
    3.3727    2.5792    1.9297 C   0  0  0  0  0  0  0  0  0  0  0  0
    3.7309    1.4486    1.6587 O   0  0  0  0  0  0  0  0  0  0  0  0
    2.8632    2.8514    3.1488 O   0  0  0  0  0  0  0  0  0  0  0  0
    2.7721    1.7467    4.0868 C   0  0  0  0  0  0  0  0  0  0  0  0
    5.7954    4.3481    1.5972 N   0  0  0  0  0  0  0  0  0  0  0  0
    6.8165    5.1941    1.3563 C   0  0  0  0  0  0  0  0  0  0  0  0
    6.7244    6.0198    0.4728 O   0  0  0  0  0  0  0  0  0  0  0  0
    8.0727    5.1142    2.1849 C   0  0  2  0  0  0  0  0  0  0  0  0
    8.5183    4.1255    2.0747 H   0  0  0  0  0  0  0  0  0  0  0  0
    7.7298    5.3580    3.6559 C   0  0  0  0  0  0  0  0  0  0  0  0
    9.0052    5.2768    4.4971 C   0  0  0  0  0  0  0  0  0  0  0  0
    9.9981    6.3395    4.0220 C   0  0  0  0  0  0  0  0  0  0  0  0
   10.3410    6.0957    2.5510 C   0  0  0  0  0  0  0  0  0  0  0  0
    9.0656    6.1769    1.7098 C   0  0  1  0  0  0  0  0  0  0  0  0
    8.6200    7.1656    1.8200 H   0  0  0  0  0  0  0  0  0  0  0  0
    9.4033    5.9368    0.2609 C   0  0  0  0  0  0  0  0  0  0  0  0
    8.9014    5.0107   -0.3310 O   0  0  0  0  0  0  0  0  0  0  0  0
   -2.8198    0.7814    1.0468 H   0  0  0  0  0  0  0  0  0  0  0  0
   -3.2848    1.5534   -0.4882 H   0  0  0  0  0  0  0  0  0  0  0  0
   -2.3688    0.0272   -0.5012 H   0  0  0  0  0  0  0  0  0  0  0  0
    0.0021   -0.0041    0.0020 H   0  0  0  0  0  0  0  0  0  0  0  0
    2.1161    1.2533   -0.0118 H   0  0  0  0  0  0  0  0  0  0  0  0
   -0.0893    4.9282    0.0290 H   0  0  0  0  0  0  0  0  0  0  0  0
   -2.8958    4.0405   -0.9757 H   0  0  0  0  0  0  0  0  0  0  0  0
   -3.3100    3.2520    0.5654 H   0  0  0  0  0  0  0  0  0  0  0  0
   -2.4516    4.8113    0.5660 H   0  0  0  0  0  0  0  0  0  0  0  0
    1.9875    5.3116   -1.6587 H   0  0  0  0  0  0  0  0  0  0  0  0
    2.1337    0.9678    3.6698 H   0  0  0  0  0  0  0  0  0  0  0  0
    3.7675    1.3418    4.2691 H   0  0  0  0  0  0  0  0  0  0  0  0
    2.3466    2.1014    5.0255 H   0  0  0  0  0  0  0  0  0  0  0  0
    5.8691    3.6877    2.3038 H   0  0  0  0  0  0  0  0  0  0  0  0
    7.2842    6.3466    3.7661 H   0  0  0  0  0  0  0  0  0  0  0  0
    7.0225    4.6009    3.9944 H   0  0  0  0  0  0  0  0  0  0  0  0
    8.7609    5.4505    5.5451 H   0  0  0  0  0  0  0  0  0  0  0  0
    9.4508    4.2881    4.3870 H   0  0  0  0  0  0  0  0  0  0  0  0
    9.5525    7.3282    4.1322 H   0  0  0  0  0  0  0  0  0  0  0  0
   10.9067    6.2817    4.6213 H   0  0  0  0  0  0  0  0  0  0  0  0
   11.0483    6.8528    2.2125 H   0  0  0  0  0  0  0  0  0  0  0  0
   10.7866    5.1071    2.4408 H   0  0  0  0  0  0  0  0  0  0  0  0
   10.2617    6.7518   -0.3721 O   0  5  0  0  0  0  0  0  0  0  0  0
  1  2  1  0  0  0  0
  1 31  1  0  0  0  0
  1 32  1  0  0  0  0
  1 33  1  0  0  0  0
  2  7  2  0  0  0  0
  2  3  1  0  0  0  0
  3  4  2  0  0  0  0
  3 34  1  0  0  0  0
  4  5  1  0  0  0  0
  4 35  1  0  0  0  0
  5  6  2  0  0  0  0
  5  9  1  0  0  0  0
  6  7  1  0  0  0  0
  6 36  1  0  0  0  0
  7  8  1  0  0  0  0
  8 37  1  0  0  0  0
  8 38  1  0  0  0  0
  8 39  1  0  0  0  0
  9 13  1  0  0  0  0
  9 10  2  0  0  0  0
 10 11  1  0  0  0  0
 10 40  1  0  0  0  0
 11 12  1  0  0  0  0
 12 13  2  0  0  0  0
 12 18  1  0  0  0  0
 13 14  1  0  0  0  0
 14 15  2  0  0  0  0
 14 16  1  0  0  0  0
 16 17  1  0  0  0  0
 17 41  1  0  0  0  0
 17 42  1  0  0  0  0
 17 43  1  0  0  0  0
 18 19  1  0  0  0  0
 18 44  1  0  0  0  0
 19 20  2  0  0  0  0
 19 21  1  0  0  0  0
 21 22  1  0  0  0  0
 21 27  1  0  0  0  0
 21 23  1  0  0  0  0
 23 24  1  0  0  0  0
 23 45  1  0  0  0  0
 23 46  1  0  0  0  0
 24 25  1  0  0  0  0
 24 47  1  0  0  0  0
 24 48  1  0  0  0  0
 25 26  1  0  0  0  0
 25 49  1  0  0  0  0
 25 50  1  0  0  0  0
 26 27  1  0  0  0  0
 26 51  1  0  0  0  0
 26 52  1  0  0  0  0
 27 28  1  0  0  0  0
 27 29  1  0  0  0  0
 29 30  2  0  0  0  0
 29 53  1  0  0  0  0
M  CHG  1  53  -1
M  END
$$$$
ZINC02767826
  -OEChem-08230709463D

 53 55  0     1  0  0  0  0  0999 V2000
   -1.1494    3.3934   12.8332 C   0  0  0  0  0  0  0  0  0  0  0  0
   -1.4116    3.5728   11.3601 C   0  0  0  0  0  0  0  0  0  0  0  0
   -1.4309    2.4703   10.5244 C   0  0  0  0  0  0  0  0  0  0  0  0
   -1.6708    2.6282    9.1749 C   0  0  0  0  0  0  0  0  0  0  0  0
   -1.8942    3.9022    8.6537 C   0  0  0  0  0  0  0  0  0  0  0  0
   -1.8678    5.0099    9.4997 C   0  0  0  0  0  0  0  0  0  0  0  0
   -1.6324    4.8389   10.8489 C   0  0  0  0  0  0  0  0  0  0  0  0
   -1.6097    6.0346   11.7658 C   0  0  0  0  0  0  0  0  0  0  0  0
   -2.1526    4.0785    7.2049 C   0  0  0  0  0  0  0  0  0  0  0  0
   -3.2080    4.8027    6.7528 C   0  0  0  0  0  0  0  0  0  0  0  0
   -3.0513    4.6938    4.9825 S   0  0  0  0  0  0  0  0  0  0  0  0
   -1.6271    3.7161    4.8731 C   0  0  0  0  0  0  0  0  0  0  0  0
   -1.2930    3.4813    6.2003 C   0  0  0  0  0  0  0  0  0  0  0  0
   -0.1296    2.6742    6.5675 C   0  0  0  0  0  0  0  0  0  0  0  0
    0.9542    3.2046    6.7228 O   0  0  0  0  0  0  0  0  0  0  0  0
   -0.2584    1.3417    6.7340 O   0  0  0  0  0  0  0  0  0  0  0  0
    0.9381    0.6041    7.0981 C   0  0  0  0  0  0  0  0  0  0  0  0
   -0.9785    3.2692    3.7330 N   0  0  0  0  0  0  0  0  0  0  0  0
   -1.4550    3.5951    2.5151 C   0  0  0  0  0  0  0  0  0  0  0  0
   -2.4514    4.2794    2.4170 O   0  0  0  0  0  0  0  0  0  0  0  0
   -0.7496    3.1091    1.2752 C   0  0  1  0  0  0  0  0  0  0  0  0
    0.2730    3.4864    1.2675 H   0  0  0  0  0  0  0  0  0  0  0  0
   -0.7288    1.5792    1.2668 C   0  0  0  0  0  0  0  0  0  0  0  0
   -0.0127    1.0858    0.0080 C   0  0  0  0  0  0  0  0  0  0  0  0
   -0.7527    1.5927   -1.2315 C   0  0  0  0  0  0  0  0  0  0  0  0
   -0.7734    3.1225   -1.2231 C   0  0  0  0  0  0  0  0  0  0  0  0
   -1.4896    3.6159    0.0357 C   0  0  2  0  0  0  0  0  0  0  0  0
   -2.5122    3.2386    0.0434 H   0  0  0  0  0  0  0  0  0  0  0  0
   -1.5100    5.1227    0.0440 C   0  0  0  0  0  0  0  0  0  0  0  0
   -0.9864    5.7291    0.9485 O   0  0  0  0  0  0  0  0  0  0  0  0
   -0.0778    3.4585   13.0221 H   0  0  0  0  0  0  0  0  0  0  0  0
   -1.6649    4.1746   13.3918 H   0  0  0  0  0  0  0  0  0  0  0  0
   -1.5157    2.4173   13.1513 H   0  0  0  0  0  0  0  0  0  0  0  0
   -1.2574    1.4841   10.9291 H   0  0  0  0  0  0  0  0  0  0  0  0
   -1.6853    1.7670    8.5234 H   0  0  0  0  0  0  0  0  0  0  0  0
   -2.0354    5.9994    9.1008 H   0  0  0  0  0  0  0  0  0  0  0  0
   -0.5960    6.4315   11.8203 H   0  0  0  0  0  0  0  0  0  0  0  0
   -2.2801    6.8020   11.3787 H   0  0  0  0  0  0  0  0  0  0  0  0
   -1.9367    5.7352   12.7615 H   0  0  0  0  0  0  0  0  0  0  0  0
   -3.9614    5.3199    7.3282 H   0  0  0  0  0  0  0  0  0  0  0  0
    0.6958   -0.4537    7.2003 H   0  0  0  0  0  0  0  0  0  0  0  0
    1.6931    0.7307    6.3223 H   0  0  0  0  0  0  0  0  0  0  0  0
    1.3234    0.9817    8.0453 H   0  0  0  0  0  0  0  0  0  0  0  0
   -0.1815    2.7219    3.8114 H   0  0  0  0  0  0  0  0  0  0  0  0
   -1.7514    1.2020    1.2746 H   0  0  0  0  0  0  0  0  0  0  0  0
   -0.2017    1.2182    2.1499 H   0  0  0  0  0  0  0  0  0  0  0  0
    0.0021   -0.0041    0.0020 H   0  0  0  0  0  0  0  0  0  0  0  0
    1.0099    1.4631    0.0003 H   0  0  0  0  0  0  0  0  0  0  0  0
   -0.2425    1.2411   -2.1283 H   0  0  0  0  0  0  0  0  0  0  0  0
   -1.7753    1.2154   -1.2238 H   0  0  0  0  0  0  0  0  0  0  0  0
    0.2491    3.4998   -1.2308 H   0  0  0  0  0  0  0  0  0  0  0  0
   -1.3006    3.4836   -2.1062 H   0  0  0  0  0  0  0  0  0  0  0  0
   -2.1099    5.7913   -0.9535 O   0  5  0  0  0  0  0  0  0  0  0  0
  1  2  1  0  0  0  0
  1 31  1  0  0  0  0
  1 32  1  0  0  0  0
  1 33  1  0  0  0  0
  2  7  2  0  0  0  0
  2  3  1  0  0  0  0
  3  4  2  0  0  0  0
  3 34  1  0  0  0  0
  4  5  1  0  0  0  0
  4 35  1  0  0  0  0
  5  6  2  0  0  0  0
  5  9  1  0  0  0  0
  6  7  1  0  0  0  0
  6 36  1  0  0  0  0
  7  8  1  0  0  0  0
  8 37  1  0  0  0  0
  8 38  1  0  0  0  0
  8 39  1  0  0  0  0
  9 13  1  0  0  0  0
  9 10  2  0  0  0  0
 10 11  1  0  0  0  0
 10 40  1  0  0  0  0
 11 12  1  0  0  0  0
 12 13  2  0  0  0  0
 12 18  1  0  0  0  0
 13 14  1  0  0  0  0
 14 15  2  0  0  0  0
 14 16  1  0  0  0  0
 16 17  1  0  0  0  0
 17 41  1  0  0  0  0
 17 42  1  0  0  0  0
 17 43  1  0  0  0  0
 18 19  1  0  0  0  0
 18 44  1  0  0  0  0
 19 20  2  0  0  0  0
 19 21  1  0  0  0  0
 21 22  1  0  0  0  0
 21 27  1  0  0  0  0
 21 23  1  0  0  0  0
 23 24  1  0  0  0  0
 23 45  1  0  0  0  0
 23 46  1  0  0  0  0
 24 25  1  0  0  0  0
 24 47  1  0  0  0  0
 24 48  1  0  0  0  0
 25 26  1  0  0  0  0
 25 49  1  0  0  0  0
 25 50  1  0  0  0  0
 26 27  1  0  0  0  0
 26 51  1  0  0  0  0
 26 52  1  0  0  0  0
 27 28  1  0  0  0  0
 27 29  1  0  0  0  0
 29 30  2  0  0  0  0
 29 53  1  0  0  0  0
M  CHG  1  53  -1
M  END
$$$$
ZINC02767827
  -OEChem-08230709463D

 53 55  0     1  0  0  0  0  0999 V2000
   12.4868    2.7820    6.1087 C   0  0  0  0  0  0  0  0  0  0  0  0
   11.0741    2.6643    5.5974 C   0  0  0  0  0  0  0  0  0  0  0  0
   10.8451    2.2849    4.2866 C   0  0  0  0  0  0  0  0  0  0  0  0
    9.5538    2.1703    3.8144 C   0  0  0  0  0  0  0  0  0  0  0  0
    8.4787    2.4493    4.6575 C   0  0  0  0  0  0  0  0  0  0  0  0
    8.7157    2.8310    5.9772 C   0  0  0  0  0  0  0  0  0  0  0  0
   10.0116    2.9363    6.4401 C   0  0  0  0  0  0  0  0  0  0  0  0
   10.2695    3.3488    7.8664 C   0  0  0  0  0  0  0  0  0  0  0  0
    7.0892    2.3344    4.1543 C   0  0  0  0  0  0  0  0  0  0  0  0
    6.1436    1.6315    4.8283 C   0  0  0  0  0  0  0  0  0  0  0  0
    4.6925    1.8198    3.8139 S   0  0  0  0  0  0  0  0  0  0  0  0
    5.3478    2.7932    2.5413 C   0  0  0  0  0  0  0  0  0  0  0  0
    6.6732    2.9674    2.9170 C   0  0  0  0  0  0  0  0  0  0  0  0
    7.6042    3.7511    2.1052 C   0  0  0  0  0  0  0  0  0  0  0  0
    7.7255    4.9456    2.3014 O   0  0  0  0  0  0  0  0  0  0  0  0
    8.3282    3.1493    1.1391 O   0  0  0  0  0  0  0  0  0  0  0  0
    9.2319    3.9888    0.3729 C   0  0  0  0  0  0  0  0  0  0  0  0
    4.7022    3.2862    1.4186 N   0  0  0  0  0  0  0  0  0  0  0  0
    3.3982    3.0119    1.2163 C   0  0  0  0  0  0  0  0  0  0  0  0
    2.7899    2.3338    2.0168 O   0  0  0  0  0  0  0  0  0  0  0  0
    2.6961    3.5480   -0.0046 C   0  0  2  0  0  0  0  0  0  0  0  0
    3.1869    3.1698   -0.9014 H   0  0  0  0  0  0  0  0  0  0  0  0
    2.7554    5.0768    0.0030 C   0  0  0  0  0  0  0  0  0  0  0  0
    2.0665    5.6077    1.2618 C   0  0  0  0  0  0  0  0  0  0  0  0
    0.6054    5.1539    1.2733 C   0  0  0  0  0  0  0  0  0  0  0  0
    0.5460    3.6251    1.2656 C   0  0  0  0  0  0  0  0  0  0  0  0
    1.2350    3.0943    0.0069 C   0  0  2  0  0  0  0  0  0  0  0  0
    0.7272    3.4820   -0.8762 H   0  0  0  0  0  0  0  0  0  0  0  0
    1.1765    1.5884   -0.0006 C   0  0  0  0  0  0  0  0  0  0  0  0
    2.1986    0.9442   -0.0139 O   0  0  0  0  0  0  0  0  0  0  0  0
   12.8048    1.8246    6.5215 H   0  0  0  0  0  0  0  0  0  0  0  0
   13.1480    3.0615    5.2884 H   0  0  0  0  0  0  0  0  0  0  0  0
   12.5295    3.5450    6.8859 H   0  0  0  0  0  0  0  0  0  0  0  0
   11.6787    2.0735    3.6333 H   0  0  0  0  0  0  0  0  0  0  0  0
    9.3761    1.8698    2.7924 H   0  0  0  0  0  0  0  0  0  0  0  0
    7.8868    3.0443    6.6359 H   0  0  0  0  0  0  0  0  0  0  0  0
   10.3084    2.4625    8.4996 H   0  0  0  0  0  0  0  0  0  0  0  0
   11.2200    3.8792    7.9250 H   0  0  0  0  0  0  0  0  0  0  0  0
    9.4667    4.0032    8.2062 H   0  0  0  0  0  0  0  0  0  0  0  0
    6.2458    1.0915    5.7580 H   0  0  0  0  0  0  0  0  0  0  0  0
    9.7512    3.3816   -0.3685 H   0  0  0  0  0  0  0  0  0  0  0  0
    8.6627    4.7698   -0.1312 H   0  0  0  0  0  0  0  0  0  0  0  0
    9.9601    4.4452    1.0434 H   0  0  0  0  0  0  0  0  0  0  0  0
    5.1887    3.8286    0.7784 H   0  0  0  0  0  0  0  0  0  0  0  0
    2.2476    5.4646   -0.8801 H   0  0  0  0  0  0  0  0  0  0  0  0
    3.7964    5.4001   -0.0052 H   0  0  0  0  0  0  0  0  0  0  0  0
    2.1088    6.6968    1.2672 H   0  0  0  0  0  0  0  0  0  0  0  0
    2.5743    5.2199    2.1449 H   0  0  0  0  0  0  0  0  0  0  0  0
    0.0975    5.5417    0.3902 H   0  0  0  0  0  0  0  0  0  0  0  0
    0.1145    5.5321    2.1700 H   0  0  0  0  0  0  0  0  0  0  0  0
   -0.4949    3.3019    1.2738 H   0  0  0  0  0  0  0  0  0  0  0  0
    1.0538    3.2374    2.1487 H   0  0  0  0  0  0  0  0  0  0  0  0
   -0.0110    0.9628    0.0073 O   0  5  0  0  0  0  0  0  0  0  0  0
  1  2  1  0  0  0  0
  1 31  1  0  0  0  0
  1 32  1  0  0  0  0
  1 33  1  0  0  0  0
  2  7  2  0  0  0  0
  2  3  1  0  0  0  0
  3  4  2  0  0  0  0
  3 34  1  0  0  0  0
  4  5  1  0  0  0  0
  4 35  1  0  0  0  0
  5  6  2  0  0  0  0
  5  9  1  0  0  0  0
  6  7  1  0  0  0  0
  6 36  1  0  0  0  0
  7  8  1  0  0  0  0
  8 37  1  0  0  0  0
  8 38  1  0  0  0  0
  8 39  1  0  0  0  0
  9 13  1  0  0  0  0
  9 10  2  0  0  0  0
 10 11  1  0  0  0  0
 10 40  1  0  0  0  0
 11 12  1  0  0  0  0
 12 13  2  0  0  0  0
 12 18  1  0  0  0  0
 13 14  1  0  0  0  0
 14 15  2  0  0  0  0
 14 16  1  0  0  0  0
 16 17  1  0  0  0  0
 17 41  1  0  0  0  0
 17 42  1  0  0  0  0
 17 43  1  0  0  0  0
 18 19  1  0  0  0  0
 18 44  1  0  0  0  0
 19 20  2  0  0  0  0
 19 21  1  0  0  0  0
 21 22  1  0  0  0  0
 21 27  1  0  0  0  0
 21 23  1  0  0  0  0
 23 24  1  0  0  0  0
 23 45  1  0  0  0  0
 23 46  1  0  0  0  0
 24 25  1  0  0  0  0
 24 47  1  0  0  0  0
 24 48  1  0  0  0  0
 25 26  1  0  0  0  0
 25 49  1  0  0  0  0
 25 50  1  0  0  0  0
 26 27  1  0  0  0  0
 26 51  1  0  0  0  0
 26 52  1  0  0  0  0
 27 28  1  0  0  0  0
 27 29  1  0  0  0  0
 29 30  2  0  0  0  0
 29 53  1  0  0  0  0
M  CHG  1  53  -1
M  END
$$$$
ZINC02772068
  -OEChem-08230709463D

 59 61  0     1  0  0  0  0  0999 V2000
   -0.0127    1.0858    0.0080 C   0  0  0  0  0  0  0  0  0  0  0  0
   -0.7288    1.5792    1.2668 C   0  0  0  0  0  0  0  0  0  0  0  0
   -2.0911    1.0767    1.2771 O   0  0  0  0  0  0  0  0  0  0  0  0
   -2.8636    1.4229    2.3272 C   0  0  0  0  0  0  0  0  0  0  0  0
   -2.4101    2.1260    3.2102 O   0  0  0  0  0  0  0  0  0  0  0  0
   -4.2481    0.9523    2.4043 C   0  0  0  0  0  0  0  0  0  0  0  0
   -4.5813   -0.3116    3.0548 C   0  0  0  0  0  0  0  0  0  0  0  0
   -5.8894   -0.6139    3.0579 C   0  0  0  0  0  0  0  0  0  0  0  0
   -6.6820    0.7221    2.2091 S   0  0  0  0  0  0  0  0  0  0  0  0
   -5.2882    1.6891    1.8566 C   0  0  0  0  0  0  0  0  0  0  0  0
   -5.2273    2.9029    1.1901 N   0  0  0  0  0  0  0  0  0  0  0  0
   -6.3559    3.4729    0.7234 C   0  0  0  0  0  0  0  0  0  0  0  0
   -7.4249    2.9237    0.8867 O   0  0  0  0  0  0  0  0  0  0  0  0
   -6.2897    4.7925   -0.0013 C   0  0  1  0  0  0  0  0  0  0  0  0
   -5.8664    5.5490    0.6595 H   0  0  0  0  0  0  0  0  0  0  0  0
   -5.4075    4.6487   -1.2430 C   0  0  0  0  0  0  0  0  0  0  0  0
   -6.0017    3.5868   -2.1705 C   0  0  0  0  0  0  0  0  0  0  0  0
   -7.4107    4.0085   -2.5920 C   0  0  0  0  0  0  0  0  0  0  0  0
   -8.2929    4.1523   -1.3502 C   0  0  0  0  0  0  0  0  0  0  0  0
   -7.6987    5.2142   -0.4227 C   0  0  1  0  0  0  0  0  0  0  0  0
   -7.6508    6.1687   -0.9469 H   0  0  0  0  0  0  0  0  0  0  0  0
   -8.5676    5.3559    0.8004 C   0  0  0  0  0  0  0  0  0  0  0  0
   -8.1071    5.1416    1.8967 O   0  0  0  0  0  0  0  0  0  0  0  0
   -6.5048   -1.8307    3.6568 C   0  0  0  0  0  0  0  0  0  0  0  0
   -6.8081   -1.6375    5.1583 C   0  0  0  0  0  0  0  0  0  0  0  0
   -5.5868   -2.1646    5.9515 C   0  0  0  0  0  0  0  0  0  0  0  0
   -4.8952   -0.9715    6.6167 C   0  0  0  0  0  0  0  0  0  0  0  0
   -4.2838    0.0317    5.6804 C   0  0  0  0  0  0  0  0  0  0  0  0
   -3.0408   -0.5192    4.9690 C   0  0  0  0  0  0  0  0  0  0  0  0
   -3.5308   -1.2023    3.6901 C   0  0  0  0  0  0  0  0  0  0  0  0
    0.0021   -0.0041    0.0020 H   0  0  0  0  0  0  0  0  0  0  0  0
    1.0099    1.4631    0.0003 H   0  0  0  0  0  0  0  0  0  0  0  0
   -0.5399    1.4469   -0.8751 H   0  0  0  0  0  0  0  0  0  0  0  0
   -0.2017    1.2182    2.1499 H   0  0  0  0  0  0  0  0  0  0  0  0
   -0.7436    2.6691    1.2728 H   0  0  0  0  0  0  0  0  0  0  0  0
   -4.3723    3.3421    1.0595 H   0  0  0  0  0  0  0  0  0  0  0  0
   -5.3595    5.6032   -1.7672 H   0  0  0  0  0  0  0  0  0  0  0  0
   -4.4037    4.3482   -0.9428 H   0  0  0  0  0  0  0  0  0  0  0  0
   -6.0496    2.6323   -1.6464 H   0  0  0  0  0  0  0  0  0  0  0  0
   -5.3732    3.4843   -3.0552 H   0  0  0  0  0  0  0  0  0  0  0  0
   -7.8340    3.2520   -3.2527 H   0  0  0  0  0  0  0  0  0  0  0  0
   -7.3628    4.9630   -3.1162 H   0  0  0  0  0  0  0  0  0  0  0  0
   -8.3408    3.1978   -0.8261 H   0  0  0  0  0  0  0  0  0  0  0  0
   -9.2967    4.4528   -1.6505 H   0  0  0  0  0  0  0  0  0  0  0  0
   -7.4339   -2.0540    3.1323 H   0  0  0  0  0  0  0  0  0  0  0  0
   -5.8203   -2.6706    3.5376 H   0  0  0  0  0  0  0  0  0  0  0  0
   -6.9598   -0.5795    5.3722 H   0  0  0  0  0  0  0  0  0  0  0  0
   -7.6998   -2.2017    5.4315 H   0  0  0  0  0  0  0  0  0  0  0  0
   -5.9199   -2.8684    6.7142 H   0  0  0  0  0  0  0  0  0  0  0  0
   -4.8930   -2.6595    5.2719 H   0  0  0  0  0  0  0  0  0  0  0  0
   -5.6272   -0.4560    7.2383 H   0  0  0  0  0  0  0  0  0  0  0  0
   -4.1070   -1.3526    7.2660 H   0  0  0  0  0  0  0  0  0  0  0  0
   -5.0240    0.3132    4.9314 H   0  0  0  0  0  0  0  0  0  0  0  0
   -4.0023    0.9189    6.2476 H   0  0  0  0  0  0  0  0  0  0  0  0
   -2.3620    0.2963    4.7194 H   0  0  0  0  0  0  0  0  0  0  0  0
   -2.5348   -1.2421    5.6090 H   0  0  0  0  0  0  0  0  0  0  0  0
   -2.6976   -1.3350    3.0001 H   0  0  0  0  0  0  0  0  0  0  0  0
   -3.9666   -2.1714    3.9331 H   0  0  0  0  0  0  0  0  0  0  0  0
   -9.8531    5.7202    0.6719 O   0  5  0  0  0  0  0  0  0  0  0  0
  1  2  1  0  0  0  0
  1 31  1  0  0  0  0
  1 32  1  0  0  0  0
  1 33  1  0  0  0  0
  2  3  1  0  0  0  0
  2 34  1  0  0  0  0
  2 35  1  0  0  0  0
  3  4  1  0  0  0  0
  4  5  2  0  0  0  0
  4  6  1  0  0  0  0
  6 10  2  0  0  0  0
  6  7  1  0  0  0  0
  7 30  1  0  0  0  0
  7  8  2  0  0  0  0
  8  9  1  0  0  0  0
  8 24  1  0  0  0  0
  9 10  1  0  0  0  0
 10 11  1  0  0  0  0
 11 12  1  0  0  0  0
 11 36  1  0  0  0  0
 12 13  2  0  0  0  0
 12 14  1  0  0  0  0
 14 15  1  0  0  0  0
 14 20  1  0  0  0  0
 14 16  1  0  0  0  0
 16 17  1  0  0  0  0
 16 37  1  0  0  0  0
 16 38  1  0  0  0  0
 17 18  1  0  0  0  0
 17 39  1  0  0  0  0
 17 40  1  0  0  0  0
 18 19  1  0  0  0  0
 18 41  1  0  0  0  0
 18 42  1  0  0  0  0
 19 20  1  0  0  0  0
 19 43  1  0  0  0  0
 19 44  1  0  0  0  0
 20 21  1  0  0  0  0
 20 22  1  0  0  0  0
 22 23  2  0  0  0  0
 22 59  1  0  0  0  0
 24 25  1  0  0  0  0
 24 45  1  0  0  0  0
 24 46  1  0  0  0  0
 25 26  1  0  0  0  0
 25 47  1  0  0  0  0
 25 48  1  0  0  0  0
 26 27  1  0  0  0  0
 26 49  1  0  0  0  0
 26 50  1  0  0  0  0
 27 28  1  0  0  0  0
 27 51  1  0  0  0  0
 27 52  1  0  0  0  0
 28 29  1  0  0  0  0
 28 53  1  0  0  0  0
 28 54  1  0  0  0  0
 29 30  1  0  0  0  0
 29 55  1  0  0  0  0
 29 56  1  0  0  0  0
 30 57  1  0  0  0  0
 30 58  1  0  0  0  0
M  CHG  1  59  -1
M  END
$$$$
ZINC02772069
  -OEChem-08230709463D

 59 61  0     1  0  0  0  0  0999 V2000
   -5.4021    5.5135   -5.2516 C   0  0  0  0  0  0  0  0  0  0  0  0
   -5.0769    4.0385   -5.4954 C   0  0  0  0  0  0  0  0  0  0  0  0
   -5.3265    3.2809   -4.2821 O   0  0  0  0  0  0  0  0  0  0  0  0
   -5.0878    1.9542   -4.3286 C   0  0  0  0  0  0  0  0  0  0  0  0
   -4.6820    1.4449   -5.3560 O   0  0  0  0  0  0  0  0  0  0  0  0
   -5.3172    1.1269   -3.1422 C   0  0  0  0  0  0  0  0  0  0  0  0
   -6.6132    0.5011   -2.8967 C   0  0  0  0  0  0  0  0  0  0  0  0
   -6.6798   -0.2304   -1.7731 C   0  0  0  0  0  0  0  0  0  0  0  0
   -5.0734   -0.1110   -1.0391 S   0  0  0  0  0  0  0  0  0  0  0  0
   -4.3107    0.9110   -2.2121 C   0  0  0  0  0  0  0  0  0  0  0  0
   -3.0103    1.3907   -2.2219 N   0  0  0  0  0  0  0  0  0  0  0  0
   -2.1665    1.0710   -1.2208 C   0  0  0  0  0  0  0  0  0  0  0  0
   -2.5450    0.3636   -0.3114 O   0  0  0  0  0  0  0  0  0  0  0  0
   -0.7527    1.5927   -1.2315 C   0  0  2  0  0  0  0  0  0  0  0  0
   -0.7675    2.6825   -1.2255 H   0  0  0  0  0  0  0  0  0  0  0  0
   -0.0366    1.0992   -2.4903 C   0  0  0  0  0  0  0  0  0  0  0  0
    1.3988    1.6288   -2.5012 C   0  0  0  0  0  0  0  0  0  0  0  0
    2.1388    1.1220   -1.2617 C   0  0  0  0  0  0  0  0  0  0  0  0
    1.4227    1.6154   -0.0028 C   0  0  0  0  0  0  0  0  0  0  0  0
   -0.0127    1.0858    0.0080 C   0  0  1  0  0  0  0  0  0  0  0  0
    0.0021   -0.0041    0.0020 H   0  0  0  0  0  0  0  0  0  0  0  0
   -0.7181    1.5718    1.2479 C   0  0  0  0  0  0  0  0  0  0  0  0
   -1.7108    2.2536    1.1502 O   0  0  0  0  0  0  0  0  0  0  0  0
   -7.8725   -0.9767   -1.2842 C   0  0  0  0  0  0  0  0  0  0  0  0
   -7.9594   -2.3861   -1.9087 C   0  0  0  0  0  0  0  0  0  0  0  0
   -8.8465   -2.2815   -3.1736 C   0  0  0  0  0  0  0  0  0  0  0  0
   -7.9620   -2.5137   -4.4016 C   0  0  0  0  0  0  0  0  0  0  0  0
   -6.9024   -1.4773   -4.6460 C   0  0  0  0  0  0  0  0  0  0  0  0
   -7.4939   -0.1378   -5.1048 C   0  0  0  0  0  0  0  0  0  0  0  0
   -7.7902    0.6695   -3.8386 C   0  0  0  0  0  0  0  0  0  0  0  0
   -6.4505    5.6128   -4.9704 H   0  0  0  0  0  0  0  0  0  0  0  0
   -4.7727    5.8964   -4.4482 H   0  0  0  0  0  0  0  0  0  0  0  0
   -5.2148    6.0822   -6.1624 H   0  0  0  0  0  0  0  0  0  0  0  0
   -4.0285    3.9392   -5.7766 H   0  0  0  0  0  0  0  0  0  0  0  0
   -5.7064    3.6556   -6.2987 H   0  0  0  0  0  0  0  0  0  0  0  0
   -2.7076    1.9566   -2.9493 H   0  0  0  0  0  0  0  0  0  0  0  0
   -0.5637    1.4603   -3.3734 H   0  0  0  0  0  0  0  0  0  0  0  0
   -0.0218    0.0093   -2.4963 H   0  0  0  0  0  0  0  0  0  0  0  0
    1.3840    2.7187   -2.4952 H   0  0  0  0  0  0  0  0  0  0  0  0
    1.9090    1.2773   -3.3980 H   0  0  0  0  0  0  0  0  0  0  0  0
    3.1614    1.4993   -1.2694 H   0  0  0  0  0  0  0  0  0  0  0  0
    2.1536    0.0321   -1.2676 H   0  0  0  0  0  0  0  0  0  0  0  0
    1.4079    2.7053    0.0031 H   0  0  0  0  0  0  0  0  0  0  0  0
    1.9499    1.2543    0.8802 H   0  0  0  0  0  0  0  0  0  0  0  0
   -7.8128   -1.0714   -0.1999 H   0  0  0  0  0  0  0  0  0  0  0  0
   -8.7720   -0.4176   -1.5419 H   0  0  0  0  0  0  0  0  0  0  0  0
   -6.9626   -2.7313   -2.1832 H   0  0  0  0  0  0  0  0  0  0  0  0
   -8.4090   -3.0790   -1.1975 H   0  0  0  0  0  0  0  0  0  0  0  0
   -9.6298   -3.0385   -3.1366 H   0  0  0  0  0  0  0  0  0  0  0  0
   -9.2955   -1.2897   -3.2264 H   0  0  0  0  0  0  0  0  0  0  0  0
   -7.4734   -3.4819   -4.2920 H   0  0  0  0  0  0  0  0  0  0  0  0
   -8.6043   -2.5589   -5.2811 H   0  0  0  0  0  0  0  0  0  0  0  0
   -6.3431   -1.3193   -3.7238 H   0  0  0  0  0  0  0  0  0  0  0  0
   -6.2209   -1.8428   -5.4141 H   0  0  0  0  0  0  0  0  0  0  0  0
   -6.7738    0.3944   -5.7263 H   0  0  0  0  0  0  0  0  0  0  0  0
   -8.4149   -0.3084   -5.6622 H   0  0  0  0  0  0  0  0  0  0  0  0
   -8.6981    0.2949   -3.3658 H   0  0  0  0  0  0  0  0  0  0  0  0
   -7.9125    1.7225   -4.0922 H   0  0  0  0  0  0  0  0  0  0  0  0
   -0.2435    1.2473    2.4608 O   0  5  0  0  0  0  0  0  0  0  0  0
  1  2  1  0  0  0  0
  1 31  1  0  0  0  0
  1 32  1  0  0  0  0
  1 33  1  0  0  0  0
  2  3  1  0  0  0  0
  2 34  1  0  0  0  0
  2 35  1  0  0  0  0
  3  4  1  0  0  0  0
  4  5  2  0  0  0  0
  4  6  1  0  0  0  0
  6 10  2  0  0  0  0
  6  7  1  0  0  0  0
  7 30  1  0  0  0  0
  7  8  2  0  0  0  0
  8  9  1  0  0  0  0
  8 24  1  0  0  0  0
  9 10  1  0  0  0  0
 10 11  1  0  0  0  0
 11 12  1  0  0  0  0
 11 36  1  0  0  0  0
 12 13  2  0  0  0  0
 12 14  1  0  0  0  0
 14 15  1  0  0  0  0
 14 20  1  0  0  0  0
 14 16  1  0  0  0  0
 16 17  1  0  0  0  0
 16 37  1  0  0  0  0
 16 38  1  0  0  0  0
 17 18  1  0  0  0  0
 17 39  1  0  0  0  0
 17 40  1  0  0  0  0
 18 19  1  0  0  0  0
 18 41  1  0  0  0  0
 18 42  1  0  0  0  0
 19 20  1  0  0  0  0
 19 43  1  0  0  0  0
 19 44  1  0  0  0  0
 20 21  1  0  0  0  0
 20 22  1  0  0  0  0
 22 23  2  0  0  0  0
 22 59  1  0  0  0  0
 24 25  1  0  0  0  0
 24 45  1  0  0  0  0
 24 46  1  0  0  0  0
 25 26  1  0  0  0  0
 25 47  1  0  0  0  0
 25 48  1  0  0  0  0
 26 27  1  0  0  0  0
 26 49  1  0  0  0  0
 26 50  1  0  0  0  0
 27 28  1  0  0  0  0
 27 51  1  0  0  0  0
 27 52  1  0  0  0  0
 28 29  1  0  0  0  0
 28 53  1  0  0  0  0
 28 54  1  0  0  0  0
 29 30  1  0  0  0  0
 29 55  1  0  0  0  0
 29 56  1  0  0  0  0
 30 57  1  0  0  0  0
 30 58  1  0  0  0  0
M  CHG  1  59  -1
M  END
$$$$
ZINC02772070
  -OEChem-08230709463D

 59 61  0     1  0  0  0  0  0999 V2000
    8.8209   -1.9415   -2.0097 C   0  0  0  0  0  0  0  0  0  0  0  0
    7.5810   -2.7477   -1.6176 C   0  0  0  0  0  0  0  0  0  0  0  0
    6.4584   -2.3419   -2.4443 O   0  0  0  0  0  0  0  0  0  0  0  0
    5.2806   -2.9612   -2.2242 C   0  0  0  0  0  0  0  0  0  0  0  0
    5.1948   -3.8172   -1.3644 O   0  0  0  0  0  0  0  0  0  0  0  0
    4.1050   -2.6029   -3.0206 C   0  0  0  0  0  0  0  0  0  0  0  0
    3.7984   -3.2954   -4.2692 C   0  0  0  0  0  0  0  0  0  0  0  0
    2.6944   -2.8601   -4.8961 C   0  0  0  0  0  0  0  0  0  0  0  0
    2.0529   -1.5653   -3.8734 S   0  0  0  0  0  0  0  0  0  0  0  0
    3.2413   -1.5964   -2.6131 C   0  0  0  0  0  0  0  0  0  0  0  0
    3.3147   -0.8046   -1.4777 N   0  0  0  0  0  0  0  0  0  0  0  0
    2.3768    0.1362   -1.2504 C   0  0  0  0  0  0  0  0  0  0  0  0
    1.4686    0.2900   -2.0393 O   0  0  0  0  0  0  0  0  0  0  0  0
    2.4566    0.9969   -0.0160 C   0  0  1  0  0  0  0  0  0  0  0  0
    2.4159    0.3648    0.8710 H   0  0  0  0  0  0  0  0  0  0  0  0
    3.7711    1.7799   -0.0244 C   0  0  0  0  0  0  0  0  0  0  0  0
    3.8521    2.6538    1.2288 C   0  0  0  0  0  0  0  0  0  0  0  0
    2.6759    3.6321    1.2453 C   0  0  0  0  0  0  0  0  0  0  0  0
    1.3614    2.8492    1.2537 C   0  0  0  0  0  0  0  0  0  0  0  0
    1.2804    1.9752    0.0004 C   0  0  2  0  0  0  0  0  0  0  0  0
    1.3211    2.6074   -0.8866 H   0  0  0  0  0  0  0  0  0  0  0  0
   -0.0143    1.2041    0.0087 C   0  0  0  0  0  0  0  0  0  0  0  0
    0.0021   -0.0041    0.0020 O   0  0  0  0  0  0  0  0  0  0  0  0
    2.1532   -3.3843   -6.1810 C   0  0  0  0  0  0  0  0  0  0  0  0
    1.2380   -4.6074   -5.9575 C   0  0  0  0  0  0  0  0  0  0  0  0
    2.1152   -5.8764   -6.0895 C   0  0  0  0  0  0  0  0  0  0  0  0
    2.2206   -6.5335   -4.7107 C   0  0  0  0  0  0  0  0  0  0  0  0
    2.9396   -5.7338   -3.6620 C   0  0  0  0  0  0  0  0  0  0  0  0
    4.4481   -5.6450   -3.9297 C   0  0  0  0  0  0  0  0  0  0  0  0
    4.6664   -4.4142   -4.8131 C   0  0  0  0  0  0  0  0  0  0  0  0
    9.6636   -2.2461   -1.3891 H   0  0  0  0  0  0  0  0  0  0  0  0
    9.0567   -2.1246   -3.0580 H   0  0  0  0  0  0  0  0  0  0  0  0
    8.6256   -0.8794   -1.8614 H   0  0  0  0  0  0  0  0  0  0  0  0
    7.3452   -2.5646   -0.5693 H   0  0  0  0  0  0  0  0  0  0  0  0
    7.7763   -3.8097   -1.7659 H   0  0  0  0  0  0  0  0  0  0  0  0
    4.0412   -0.9277   -0.8468 H   0  0  0  0  0  0  0  0  0  0  0  0
    4.6091    1.0829   -0.0361 H   0  0  0  0  0  0  0  0  0  0  0  0
    3.8118    2.4121   -0.9114 H   0  0  0  0  0  0  0  0  0  0  0  0
    3.8114    2.0217    2.1159 H   0  0  0  0  0  0  0  0  0  0  0  0
    4.7886    3.2116    1.2229 H   0  0  0  0  0  0  0  0  0  0  0  0
    2.7336    4.2547    2.1382 H   0  0  0  0  0  0  0  0  0  0  0  0
    2.7166    4.2643    0.3583 H   0  0  0  0  0  0  0  0  0  0  0  0
    0.5235    3.5461    1.2654 H   0  0  0  0  0  0  0  0  0  0  0  0
    1.3207    2.2170    2.1407 H   0  0  0  0  0  0  0  0  0  0  0  0
    1.5815   -2.5977   -6.6734 H   0  0  0  0  0  0  0  0  0  0  0  0
    2.9836   -3.6757   -6.8241 H   0  0  0  0  0  0  0  0  0  0  0  0
    0.7984   -4.5634   -4.9610 H   0  0  0  0  0  0  0  0  0  0  0  0
    0.4498   -4.6223   -6.7102 H   0  0  0  0  0  0  0  0  0  0  0  0
    1.6543   -6.5700   -6.7928 H   0  0  0  0  0  0  0  0  0  0  0  0
    3.1091   -5.6010   -6.4422 H   0  0  0  0  0  0  0  0  0  0  0  0
    1.2117   -6.7376   -4.3520 H   0  0  0  0  0  0  0  0  0  0  0  0
    2.7391   -7.4854   -4.8251 H   0  0  0  0  0  0  0  0  0  0  0  0
    2.5248   -4.7260   -3.6398 H   0  0  0  0  0  0  0  0  0  0  0  0
    2.7815   -6.2020   -2.6904 H   0  0  0  0  0  0  0  0  0  0  0  0
    4.9875   -5.5297   -2.9896 H   0  0  0  0  0  0  0  0  0  0  0  0
    4.7881   -6.5414   -4.4484 H   0  0  0  0  0  0  0  0  0  0  0  0
    5.7147   -4.1175   -4.7807 H   0  0  0  0  0  0  0  0  0  0  0  0
    4.3783   -4.6406   -5.8397 H   0  0  0  0  0  0  0  0  0  0  0  0
   -1.1857    1.8593    0.0178 O   0  5  0  0  0  0  0  0  0  0  0  0
  1  2  1  0  0  0  0
  1 31  1  0  0  0  0
  1 32  1  0  0  0  0
  1 33  1  0  0  0  0
  2  3  1  0  0  0  0
  2 34  1  0  0  0  0
  2 35  1  0  0  0  0
  3  4  1  0  0  0  0
  4  5  2  0  0  0  0
  4  6  1  0  0  0  0
  6 10  2  0  0  0  0
  6  7  1  0  0  0  0
  7 30  1  0  0  0  0
  7  8  2  0  0  0  0
  8  9  1  0  0  0  0
  8 24  1  0  0  0  0
  9 10  1  0  0  0  0
 10 11  1  0  0  0  0
 11 12  1  0  0  0  0
 11 36  1  0  0  0  0
 12 13  2  0  0  0  0
 12 14  1  0  0  0  0
 14 15  1  0  0  0  0
 14 20  1  0  0  0  0
 14 16  1  0  0  0  0
 16 17  1  0  0  0  0
 16 37  1  0  0  0  0
 16 38  1  0  0  0  0
 17 18  1  0  0  0  0
 17 39  1  0  0  0  0
 17 40  1  0  0  0  0
 18 19  1  0  0  0  0
 18 41  1  0  0  0  0
 18 42  1  0  0  0  0
 19 20  1  0  0  0  0
 19 43  1  0  0  0  0
 19 44  1  0  0  0  0
 20 21  1  0  0  0  0
 20 22  1  0  0  0  0
 22 23  2  0  0  0  0
 22 59  1  0  0  0  0
 24 25  1  0  0  0  0
 24 45  1  0  0  0  0
 24 46  1  0  0  0  0
 25 26  1  0  0  0  0
 25 47  1  0  0  0  0
 25 48  1  0  0  0  0
 26 27  1  0  0  0  0
 26 49  1  0  0  0  0
 26 50  1  0  0  0  0
 27 28  1  0  0  0  0
 27 51  1  0  0  0  0
 27 52  1  0  0  0  0
 28 29  1  0  0  0  0
 28 53  1  0  0  0  0
 28 54  1  0  0  0  0
 29 30  1  0  0  0  0
 29 55  1  0  0  0  0
 29 56  1  0  0  0  0
 30 57  1  0  0  0  0
 30 58  1  0  0  0  0
M  CHG  1  59  -1
M  END
$$$$
ZINC02772071
  -OEChem-08230709463D

 59 61  0     1  0  0  0  0  0999 V2000
    9.9430    3.1375   -0.6799 C   0  0  0  0  0  0  0  0  0  0  0  0
    9.2172    3.9894    0.3634 C   0  0  0  0  0  0  0  0  0  0  0  0
    8.3187    3.1488    1.1345 O   0  0  0  0  0  0  0  0  0  0  0  0
    7.5980    3.7501    2.1032 C   0  0  0  0  0  0  0  0  0  0  0  0
    7.7178    4.9448    2.2976 O   0  0  0  0  0  0  0  0  0  0  0  0
    6.6714    2.9645    2.9208 C   0  0  0  0  0  0  0  0  0  0  0  0
    7.1083    2.3341    4.1631 C   0  0  0  0  0  0  0  0  0  0  0  0
    6.1532    1.6470    4.8100 C   0  0  0  0  0  0  0  0  0  0  0  0
    4.6973    1.8188    3.8179 S   0  0  0  0  0  0  0  0  0  0  0  0
    5.3479    2.7931    2.5416 C   0  0  0  0  0  0  0  0  0  0  0  0
    4.7022    3.2862    1.4186 N   0  0  0  0  0  0  0  0  0  0  0  0
    3.3982    3.0119    1.2163 C   0  0  0  0  0  0  0  0  0  0  0  0
    2.7899    2.3338    2.0169 O   0  0  0  0  0  0  0  0  0  0  0  0
    2.6961    3.5480   -0.0046 C   0  0  2  0  0  0  0  0  0  0  0  0
    3.1869    3.1698   -0.9014 H   0  0  0  0  0  0  0  0  0  0  0  0
    2.7554    5.0768    0.0030 C   0  0  0  0  0  0  0  0  0  0  0  0
    2.0665    5.6077    1.2618 C   0  0  0  0  0  0  0  0  0  0  0  0
    0.6054    5.1539    1.2733 C   0  0  0  0  0  0  0  0  0  0  0  0
    0.5460    3.6251    1.2656 C   0  0  0  0  0  0  0  0  0  0  0  0
    1.2350    3.0943    0.0069 C   0  0  2  0  0  0  0  0  0  0  0  0
    0.7272    3.4820   -0.8762 H   0  0  0  0  0  0  0  0  0  0  0  0
    1.1765    1.5884   -0.0006 C   0  0  0  0  0  0  0  0  0  0  0  0
    2.1986    0.9442   -0.0139 O   0  0  0  0  0  0  0  0  0  0  0  0
    6.3222    0.9120    6.0942 C   0  0  0  0  0  0  0  0  0  0  0  0
    6.1303    1.8394    7.3136 C   0  0  0  0  0  0  0  0  0  0  0  0
    7.5287    2.3675    7.7201 C   0  0  0  0  0  0  0  0  0  0  0  0
    7.5776    3.8689    7.4242 C   0  0  0  0  0  0  0  0  0  0  0  0
    7.4765    4.2505    5.9746 C   0  0  0  0  0  0  0  0  0  0  0  0
    8.7374    3.8739    5.1855 C   0  0  0  0  0  0  0  0  0  0  0  0
    8.5306    2.4454    4.6773 C   0  0  0  0  0  0  0  0  0  0  0  0
   10.5161    2.3581   -0.1776 H   0  0  0  0  0  0  0  0  0  0  0  0
    9.2126    2.6790   -1.3465 H   0  0  0  0  0  0  0  0  0  0  0  0
   10.6175    3.7684   -1.2587 H   0  0  0  0  0  0  0  0  0  0  0  0
    8.6442    4.7687   -0.1389 H   0  0  0  0  0  0  0  0  0  0  0  0
    9.9476    4.4479    1.0300 H   0  0  0  0  0  0  0  0  0  0  0  0
    5.1887    3.8286    0.7784 H   0  0  0  0  0  0  0  0  0  0  0  0
    2.2476    5.4646   -0.8801 H   0  0  0  0  0  0  0  0  0  0  0  0
    3.7964    5.4001   -0.0052 H   0  0  0  0  0  0  0  0  0  0  0  0
    2.1088    6.6968    1.2672 H   0  0  0  0  0  0  0  0  0  0  0  0
    2.5743    5.2199    2.1449 H   0  0  0  0  0  0  0  0  0  0  0  0
    0.0975    5.5417    0.3902 H   0  0  0  0  0  0  0  0  0  0  0  0
    0.1145    5.5321    2.1700 H   0  0  0  0  0  0  0  0  0  0  0  0
   -0.4949    3.3019    1.2738 H   0  0  0  0  0  0  0  0  0  0  0  0
    1.0538    3.2374    2.1487 H   0  0  0  0  0  0  0  0  0  0  0  0
    7.3234    0.4824    6.1287 H   0  0  0  0  0  0  0  0  0  0  0  0
    5.5887    0.1072    6.1410 H   0  0  0  0  0  0  0  0  0  0  0  0
    5.6915    1.2794    8.1394 H   0  0  0  0  0  0  0  0  0  0  0  0
    5.4827    2.6742    7.0457 H   0  0  0  0  0  0  0  0  0  0  0  0
    8.2977    1.8538    7.1432 H   0  0  0  0  0  0  0  0  0  0  0  0
    7.6911    2.1970    8.7843 H   0  0  0  0  0  0  0  0  0  0  0  0
    8.5149    4.2635    7.8164 H   0  0  0  0  0  0  0  0  0  0  0  0
    6.7576    4.3464    7.9607 H   0  0  0  0  0  0  0  0  0  0  0  0
    7.3226    5.3272    5.9024 H   0  0  0  0  0  0  0  0  0  0  0  0
    6.6187    3.7422    5.5342 H   0  0  0  0  0  0  0  0  0  0  0  0
    9.6105    3.9149    5.8367 H   0  0  0  0  0  0  0  0  0  0  0  0
    8.8686    4.5536    4.3436 H   0  0  0  0  0  0  0  0  0  0  0  0
    8.6844    1.7381    5.4923 H   0  0  0  0  0  0  0  0  0  0  0  0
    9.2320    2.2363    3.8696 H   0  0  0  0  0  0  0  0  0  0  0  0
   -0.0110    0.9628    0.0073 O   0  5  0  0  0  0  0  0  0  0  0  0
  1  2  1  0  0  0  0
  1 31  1  0  0  0  0
  1 32  1  0  0  0  0
  1 33  1  0  0  0  0
  2  3  1  0  0  0  0
  2 34  1  0  0  0  0
  2 35  1  0  0  0  0
  3  4  1  0  0  0  0
  4  5  2  0  0  0  0
  4  6  1  0  0  0  0
  6 10  2  0  0  0  0
  6  7  1  0  0  0  0
  7 30  1  0  0  0  0
  7  8  2  0  0  0  0
  8  9  1  0  0  0  0
  8 24  1  0  0  0  0
  9 10  1  0  0  0  0
 10 11  1  0  0  0  0
 11 12  1  0  0  0  0
 11 36  1  0  0  0  0
 12 13  2  0  0  0  0
 12 14  1  0  0  0  0
 14 15  1  0  0  0  0
 14 20  1  0  0  0  0
 14 16  1  0  0  0  0
 16 17  1  0  0  0  0
 16 37  1  0  0  0  0
 16 38  1  0  0  0  0
 17 18  1  0  0  0  0
 17 39  1  0  0  0  0
 17 40  1  0  0  0  0
 18 19  1  0  0  0  0
 18 41  1  0  0  0  0
 18 42  1  0  0  0  0
 19 20  1  0  0  0  0
 19 43  1  0  0  0  0
 19 44  1  0  0  0  0
 20 21  1  0  0  0  0
 20 22  1  0  0  0  0
 22 23  2  0  0  0  0
 22 59  1  0  0  0  0
 24 25  1  0  0  0  0
 24 45  1  0  0  0  0
 24 46  1  0  0  0  0
 25 26  1  0  0  0  0
 25 47  1  0  0  0  0
 25 48  1  0  0  0  0
 26 27  1  0  0  0  0
 26 49  1  0  0  0  0
 26 50  1  0  0  0  0
 27 28  1  0  0  0  0
 27 51  1  0  0  0  0
 27 52  1  0  0  0  0
 28 29  1  0  0  0  0
 28 53  1  0  0  0  0
 28 54  1  0  0  0  0
 29 30  1  0  0  0  0
 29 55  1  0  0  0  0
 29 56  1  0  0  0  0
 30 57  1  0  0  0  0
 30 58  1  0  0  0  0
M  CHG  1  59  -1
M  END
$$$$
ZINC02775974
  -OEChem-08230709463D

 57 59  0     1  0  0  0  0  0999 V2000
    6.9754   -2.3829   -7.5923 C   0  0  0  0  0  0  0  0  0  0  0  0
    7.4238   -0.9249   -7.4742 C   0  0  0  0  0  0  0  0  0  0  0  0
    7.1152   -0.4087   -6.0673 C   0  0  1  0  0  0  0  0  0  0  0  0
    7.5794   -1.0602   -5.3269 H   0  0  0  0  0  0  0  0  0  0  0  0
    7.6590    1.0144   -5.9118 C   0  0  0  0  0  0  0  0  0  0  0  0
    7.5775    1.4448   -4.4461 C   0  0  0  0  0  0  0  0  0  0  0  0
    6.1552    1.2202   -3.9475 C   0  0  0  0  0  0  0  0  0  0  0  0
    5.3094    0.3981   -4.6052 C   0  0  0  0  0  0  0  0  0  0  0  0
    3.8079    0.4494   -3.6686 S   0  0  0  0  0  0  0  0  0  0  0  0
    4.2914    1.5545   -2.4248 C   0  0  0  0  0  0  0  0  0  0  0  0
    5.6058    1.8522   -2.7596 C   0  0  0  0  0  0  0  0  0  0  0  0
    6.4080    2.7687   -1.9467 C   0  0  0  0  0  0  0  0  0  0  0  0
    7.0741    2.3390   -1.0240 O   0  0  0  0  0  0  0  0  0  0  0  0
    6.4083    4.0893   -2.2210 O   0  0  0  0  0  0  0  0  0  0  0  0
    7.2267    4.9384   -1.3739 C   0  0  0  0  0  0  0  0  0  0  0  0
    3.5485    2.0230   -1.3525 N   0  0  0  0  0  0  0  0  0  0  0  0
    2.2734    1.6186   -1.1881 C   0  0  0  0  0  0  0  0  0  0  0  0
    1.7760    0.8448   -1.9784 O   0  0  0  0  0  0  0  0  0  0  0  0
    1.4657    2.1280   -0.0222 C   0  0  1  0  0  0  0  0  0  0  0  0
    1.9543    1.8551    0.9131 H   0  0  0  0  0  0  0  0  0  0  0  0
    1.3380    3.6503   -0.1109 C   0  0  0  0  0  0  0  0  0  0  0  0
    0.3259    4.1428    0.8816 C   0  0  0  0  0  0  0  0  0  0  0  0
   -0.5534    3.3868    1.4567 C   0  0  0  0  0  0  0  0  0  0  0  0
   -0.6772    1.9102    1.2188 C   0  0  0  0  0  0  0  0  0  0  0  0
    0.0581    1.5198   -0.0652 C   0  0  2  0  0  0  0  0  0  0  0  0
   -0.4809    1.9041   -0.9311 H   0  0  0  0  0  0  0  0  0  0  0  0
    0.1574    0.0188   -0.1556 C   0  0  0  0  0  0  0  0  0  0  0  0
    1.2413   -0.5144   -0.1832 O   0  0  0  0  0  0  0  0  0  0  0  0
   -1.5129    4.0294    2.4249 C   0  0  0  0  0  0  0  0  0  0  0  0
    0.3335    5.6089    1.2302 C   0  0  0  0  0  0  0  0  0  0  0  0
    5.5952   -0.3838   -5.8502 C   0  0  0  0  0  0  0  0  0  0  0  0
    7.5084   -2.9875   -6.8585 H   0  0  0  0  0  0  0  0  0  0  0  0
    5.9032   -2.4494   -7.4080 H   0  0  0  0  0  0  0  0  0  0  0  0
    7.1953   -2.7506   -8.5946 H   0  0  0  0  0  0  0  0  0  0  0  0
    6.8909   -0.3203   -8.2081 H   0  0  0  0  0  0  0  0  0  0  0  0
    8.4961   -0.8584   -7.6585 H   0  0  0  0  0  0  0  0  0  0  0  0
    8.6980    1.0429   -6.2403 H   0  0  0  0  0  0  0  0  0  0  0  0
    7.0674    1.6968   -6.5222 H   0  0  0  0  0  0  0  0  0  0  0  0
    7.8318    2.5014   -4.3613 H   0  0  0  0  0  0  0  0  0  0  0  0
    8.2713    0.8510   -3.8510 H   0  0  0  0  0  0  0  0  0  0  0  0
    7.1366    5.9739   -1.7020 H   0  0  0  0  0  0  0  0  0  0  0  0
    6.8895    4.8539   -0.3408 H   0  0  0  0  0  0  0  0  0  0  0  0
    8.2683    4.6247   -1.4429 H   0  0  0  0  0  0  0  0  0  0  0  0
    3.9463    2.6420   -0.7204 H   0  0  0  0  0  0  0  0  0  0  0  0
    2.3046    4.1069    0.1019 H   0  0  0  0  0  0  0  0  0  0  0  0
    1.0228    3.9285   -1.1166 H   0  0  0  0  0  0  0  0  0  0  0  0
   -1.7307    1.6462    1.1263 H   0  0  0  0  0  0  0  0  0  0  0  0
   -0.2443    1.3710    2.0613 H   0  0  0  0  0  0  0  0  0  0  0  0
   -1.3631    5.1090    2.4223 H   0  0  0  0  0  0  0  0  0  0  0  0
   -2.5365    3.8038    2.1257 H   0  0  0  0  0  0  0  0  0  0  0  0
   -1.3331    3.6400    3.4270 H   0  0  0  0  0  0  0  0  0  0  0  0
    1.1758    6.0951    0.7381 H   0  0  0  0  0  0  0  0  0  0  0  0
   -0.5970    6.0670    0.8947 H   0  0  0  0  0  0  0  0  0  0  0  0
    0.4270    5.7252    2.3099 H   0  0  0  0  0  0  0  0  0  0  0  0
    5.2236   -1.4023   -5.7376 H   0  0  0  0  0  0  0  0  0  0  0  0
    5.1097    0.0921   -6.7022 H   0  0  0  0  0  0  0  0  0  0  0  0
   -0.9583   -0.7258   -0.2055 O   0  5  0  0  0  0  0  0  0  0  0  0
  1  2  1  0  0  0  0
  1 32  1  0  0  0  0
  1 33  1  0  0  0  0
  1 34  1  0  0  0  0
  2  3  1  0  0  0  0
  2 35  1  0  0  0  0
  2 36  1  0  0  0  0
  3  4  1  0  0  0  0
  3 31  1  0  0  0  0
  3  5  1  0  0  0  0
  5  6  1  0  0  0  0
  5 37  1  0  0  0  0
  5 38  1  0  0  0  0
  6  7  1  0  0  0  0
  6 39  1  0  0  0  0
  6 40  1  0  0  0  0
  7 11  1  0  0  0  0
  7  8  2  0  0  0  0
  8  9  1  0  0  0  0
  8 31  1  0  0  0  0
  9 10  1  0  0  0  0
 10 11  2  0  0  0  0
 10 16  1  0  0  0  0
 11 12  1  0  0  0  0
 12 13  2  0  0  0  0
 12 14  1  0  0  0  0
 14 15  1  0  0  0  0
 15 41  1  0  0  0  0
 15 42  1  0  0  0  0
 15 43  1  0  0  0  0
 16 17  1  0  0  0  0
 16 44  1  0  0  0  0
 17 18  2  0  0  0  0
 17 19  1  0  0  0  0
 19 20  1  0  0  0  0
 19 25  1  0  0  0  0
 19 21  1  0  0  0  0
 21 22  1  0  0  0  0
 21 45  1  0  0  0  0
 21 46  1  0  0  0  0
 22 23  2  0  0  0  0
 22 30  1  0  0  0  0
 23 24  1  0  0  0  0
 23 29  1  0  0  0  0
 24 25  1  0  0  0  0
 24 47  1  0  0  0  0
 24 48  1  0  0  0  0
 25 26  1  0  0  0  0
 25 27  1  0  0  0  0
 27 28  2  0  0  0  0
 27 57  1  0  0  0  0
 29 49  1  0  0  0  0
 29 50  1  0  0  0  0
 29 51  1  0  0  0  0
 30 52  1  0  0  0  0
 30 53  1  0  0  0  0
 30 54  1  0  0  0  0
 31 55  1  0  0  0  0
 31 56  1  0  0  0  0
M  CHG  1  57  -1
M  END
$$$$
ZINC02777466
  -OEChem-08230709463D

 59 61  0     1  0  0  0  0  0999 V2000
   -3.1820    1.7493    6.2492 C   0  0  0  0  0  0  0  0  0  0  0  0
   -2.8576    0.3301    5.7787 C   0  0  0  0  0  0  0  0  0  0  0  0
   -2.5928    0.3404    4.2718 C   0  0  0  0  0  0  0  0  0  0  0  0
   -2.2684   -1.0789    3.8012 C   0  0  0  0  0  0  0  0  0  0  0  0
   -2.0211   -1.0692    2.3938 O   0  0  0  0  0  0  0  0  0  0  0  0
   -1.7166   -2.2576    1.8136 C   0  0  0  0  0  0  0  0  0  0  0  0
   -1.6516   -3.4103    2.5876 C   0  0  0  0  0  0  0  0  0  0  0  0
   -1.3476   -4.6189    2.0018 C   0  0  0  0  0  0  0  0  0  0  0  0
   -1.0938   -4.6837    0.6292 C   0  0  0  0  0  0  0  0  0  0  0  0
   -1.1550   -3.5217   -0.1444 C   0  0  0  0  0  0  0  0  0  0  0  0
   -1.4648   -2.3179    0.4480 C   0  0  0  0  0  0  0  0  0  0  0  0
   -0.7616   -5.9761   -0.0016 C   0  0  0  0  0  0  0  0  0  0  0  0
   -0.5407   -6.0306   -1.1960 O   0  0  0  0  0  0  0  0  0  0  0  0
   -0.7031   -7.0958    0.7463 N   0  0  0  0  0  0  0  0  0  0  0  0
   -0.3878   -8.3225    0.1475 N   0  0  0  0  0  0  0  0  0  0  0  0
   -0.3293   -9.4422    0.8954 C   0  0  0  0  0  0  0  0  0  0  0  0
   -0.4606   -9.3749    2.0992 O   0  0  0  0  0  0  0  0  0  0  0  0
   -0.1008  -10.7778    0.2358 C   0  0  2  0  0  0  0  0  0  0  0  0
   -0.3832  -10.7360   -0.8161 H   0  0  0  0  0  0  0  0  0  0  0  0
   -0.9024  -11.8939    0.9719 C   0  0  1  0  0  0  0  0  0  0  0  0
   -1.9110  -11.6249    1.2858 H   0  0  0  0  0  0  0  0  0  0  0  0
   -0.7742  -13.1458    0.0518 C   0  0  0  0  0  0  0  0  0  0  0  0
    0.7092  -13.5924    0.2138 C   0  0  0  0  0  0  0  0  0  0  0  0
    1.3069  -12.5396    1.1959 C   0  0  1  0  0  0  0  0  0  0  0  0
    2.2247  -12.8335    1.7051 H   0  0  0  0  0  0  0  0  0  0  0  0
    1.3777  -11.2080    0.3826 C   0  0  2  0  0  0  0  0  0  0  0  0
    1.8237  -11.3806   -0.5969 H   0  0  0  0  0  0  0  0  0  0  0  0
    2.1572  -10.1657    1.1422 C   0  0  0  0  0  0  0  0  0  0  0  0
    2.3044  -10.2728    2.3366 O   0  0  0  0  0  0  0  0  0  0  0  0
    0.0856  -12.2627    2.1020 C   0  0  0  0  0  0  0  0  0  0  0  0
   -0.0633  -12.3208    3.4023 C   0  0  0  0  0  0  0  0  0  0  0  0
   -1.3955  -11.9893    4.0238 C   0  0  0  0  0  0  0  0  0  0  0  0
    1.0978  -12.7191    4.2765 C   0  0  0  0  0  0  0  0  0  0  0  0
   -2.3389    2.4054    6.0329 H   0  0  0  0  0  0  0  0  0  0  0  0
   -4.0676    2.1116    5.7272 H   0  0  0  0  0  0  0  0  0  0  0  0
   -3.3706    1.7419    7.3228 H   0  0  0  0  0  0  0  0  0  0  0  0
   -3.7007   -0.3261    5.9950 H   0  0  0  0  0  0  0  0  0  0  0  0
   -1.9719   -0.0323    6.3007 H   0  0  0  0  0  0  0  0  0  0  0  0
   -1.7497    0.9965    4.0555 H   0  0  0  0  0  0  0  0  0  0  0  0
   -3.4784    0.7027    3.7498 H   0  0  0  0  0  0  0  0  0  0  0  0
   -1.3828   -1.4412    4.3232 H   0  0  0  0  0  0  0  0  0  0  0  0
   -3.1115   -1.7350    4.0175 H   0  0  0  0  0  0  0  0  0  0  0  0
   -1.8434   -3.3586    3.6491 H   0  0  0  0  0  0  0  0  0  0  0  0
   -1.3014   -5.5148    2.6031 H   0  0  0  0  0  0  0  0  0  0  0  0
   -0.9591   -3.5677   -1.2055 H   0  0  0  0  0  0  0  0  0  0  0  0
   -1.5126   -1.4194   -0.1494 H   0  0  0  0  0  0  0  0  0  0  0  0
   -0.8794   -7.0523    1.6991 H   0  0  0  0  0  0  0  0  0  0  0  0
   -0.2116   -8.3660   -0.8054 H   0  0  0  0  0  0  0  0  0  0  0  0
   -1.4398  -13.9391    0.3921 H   0  0  0  0  0  0  0  0  0  0  0  0
   -0.9915  -12.8822   -0.9833 H   0  0  0  0  0  0  0  0  0  0  0  0
    1.2181  -13.5479   -0.7491 H   0  0  0  0  0  0  0  0  0  0  0  0
    0.7810  -14.5939    0.6382 H   0  0  0  0  0  0  0  0  0  0  0  0
   -1.9975  -12.8951    4.0974 H   0  0  0  0  0  0  0  0  0  0  0  0
   -1.2388  -11.5752    5.0198 H   0  0  0  0  0  0  0  0  0  0  0  0
   -1.9138  -11.2580    3.4036 H   0  0  0  0  0  0  0  0  0  0  0  0
    1.9697  -12.9193    3.6537 H   0  0  0  0  0  0  0  0  0  0  0  0
    1.3249  -11.9095    4.9701 H   0  0  0  0  0  0  0  0  0  0  0  0
    0.8386  -13.6166    4.8381 H   0  0  0  0  0  0  0  0  0  0  0  0
    2.6881   -9.1184    0.4918 O   0  5  0  0  0  0  0  0  0  0  0  0
  1  2  1  0  0  0  0
  1 34  1  0  0  0  0
  1 35  1  0  0  0  0
  1 36  1  0  0  0  0
  2  3  1  0  0  0  0
  2 37  1  0  0  0  0
  2 38  1  0  0  0  0
  3  4  1  0  0  0  0
  3 39  1  0  0  0  0
  3 40  1  0  0  0  0
  4  5  1  0  0  0  0
  4 41  1  0  0  0  0
  4 42  1  0  0  0  0
  5  6  1  0  0  0  0
  6 11  2  0  0  0  0
  6  7  1  0  0  0  0
  7  8  2  0  0  0  0
  7 43  1  0  0  0  0
  8  9  1  0  0  0  0
  8 44  1  0  0  0  0
  9 10  2  0  0  0  0
  9 12  1  0  0  0  0
 10 11  1  0  0  0  0
 10 45  1  0  0  0  0
 11 46  1  0  0  0  0
 12 13  2  0  0  0  0
 12 14  1  0  0  0  0
 14 15  1  0  0  0  0
 14 47  1  0  0  0  0
 15 16  1  0  0  0  0
 15 48  1  0  0  0  0
 16 17  2  0  0  0  0
 16 18  1  0  0  0  0
 18 19  1  0  0  0  0
 18 26  1  0  0  0  0
 18 20  1  0  0  0  0
 20 21  1  0  0  0  0
 20 30  1  0  0  0  0
 20 22  1  0  0  0  0
 22 23  1  0  0  0  0
 22 49  1  0  0  0  0
 22 50  1  0  0  0  0
 23 24  1  0  0  0  0
 23 51  1  0  0  0  0
 23 52  1  0  0  0  0
 24 25  1  0  0  0  0
 24 26  1  0  0  0  0
 24 30  1  0  0  0  0
 26 27  1  0  0  0  0
 26 28  1  0  0  0  0
 28 29  2  0  0  0  0
 28 59  1  0  0  0  0
 30 31  2  0  0  0  0
 31 32  1  0  0  0  0
 31 33  1  0  0  0  0
 32 53  1  0  0  0  0
 32 54  1  0  0  0  0
 32 55  1  0  0  0  0
 33 56  1  0  0  0  0
 33 57  1  0  0  0  0
 33 58  1  0  0  0  0
M  CHG  1  59  -1
M  END
$$$$
ZINC02785197
  -OEChem-08230709463D

 56 59  0     1  0  0  0  0  0999 V2000
   -3.1712    6.6973  -11.9529 C   0  0  0  0  0  0  0  0  0  0  0  0
   -2.6952    6.0620  -10.6449 C   0  0  2  0  0  0  0  0  0  0  0  0
   -2.7495    4.9762  -10.7229 H   0  0  0  0  0  0  0  0  0  0  0  0
   -3.5814    6.5386   -9.4906 C   0  0  0  0  0  0  0  0  0  0  0  0
   -3.2768    5.7268   -8.2303 C   0  0  0  0  0  0  0  0  0  0  0  0
   -1.7756    5.7660   -7.9733 C   0  0  0  0  0  0  0  0  0  0  0  0
   -1.1641    5.4480   -6.6969 C   0  0  0  0  0  0  0  0  0  0  0  0
    0.2077    5.5308   -6.6025 C   0  0  0  0  0  0  0  0  0  0  0  0
    0.6863    6.0152   -8.1959 S   0  0  0  0  0  0  0  0  0  0  0  0
   -0.9104    6.1107   -8.9544 C   0  0  0  0  0  0  0  0  0  0  0  0
   -1.2461    6.4861  -10.3642 C   0  0  0  0  0  0  0  0  0  0  0  0
   -1.9832    5.0557   -5.5386 C   0  0  0  0  0  0  0  0  0  0  0  0
   -3.1935    4.9939   -5.6426 O   0  0  0  0  0  0  0  0  0  0  0  0
   -1.3921    4.7649   -4.3628 N   0  0  0  0  0  0  0  0  0  0  0  0
   -2.1717    4.3915   -3.2603 N   0  0  0  0  0  0  0  0  0  0  0  0
   -1.5807    4.1007   -2.0844 C   0  0  0  0  0  0  0  0  0  0  0  0
   -0.3739    4.1624   -1.9808 O   0  0  0  0  0  0  0  0  0  0  0  0
   -2.4193    3.6990   -0.8985 C   0  0  2  0  0  0  0  0  0  0  0  0
   -3.1046    4.5015   -0.6254 H   0  0  0  0  0  0  0  0  0  0  0  0
   -1.5100    3.3218    0.3173 C   0  0  1  0  0  0  0  0  0  0  0  0
   -0.6431    3.9618    0.4816 H   0  0  0  0  0  0  0  0  0  0  0  0
   -2.4947    3.1682    1.5160 C   0  0  0  0  0  0  0  0  0  0  0  0
   -3.2728    1.8763    1.2077 C   0  0  0  0  0  0  0  0  0  0  0  0
   -2.6790    1.3810   -0.1459 C   0  0  1  0  0  0  0  0  0  0  0  0
   -2.8314    0.3286   -0.3855 H   0  0  0  0  0  0  0  0  0  0  0  0
   -3.2013    2.3999   -1.2038 C   0  0  1  0  0  0  0  0  0  0  0  0
   -2.9804    2.0498   -2.2121 H   0  0  0  0  0  0  0  0  0  0  0  0
   -4.6820    2.6235   -1.0344 C   0  0  0  0  0  0  0  0  0  0  0  0
   -5.0813    3.5779   -0.4103 O   0  0  0  0  0  0  0  0  0  0  0  0
   -1.2098    1.8396   -0.0027 C   0  0  0  0  0  0  0  0  0  0  0  0
   -0.0802    1.1852   -0.1113 C   0  0  0  0  0  0  0  0  0  0  0  0
   -0.0904   -0.2873   -0.4319 C   0  0  0  0  0  0  0  0  0  0  0  0
    1.2295    1.9061    0.0782 C   0  0  0  0  0  0  0  0  0  0  0  0
   -2.5318    6.3664  -12.7713 H   0  0  0  0  0  0  0  0  0  0  0  0
   -4.1997    6.3952  -12.1504 H   0  0  0  0  0  0  0  0  0  0  0  0
   -3.1211    7.7829  -11.8688 H   0  0  0  0  0  0  0  0  0  0  0  0
   -3.3876    7.5937   -9.2972 H   0  0  0  0  0  0  0  0  0  0  0  0
   -4.6292    6.4065   -9.7602 H   0  0  0  0  0  0  0  0  0  0  0  0
   -3.5961    4.6947   -8.3744 H   0  0  0  0  0  0  0  0  0  0  0  0
   -3.8044    6.1596   -7.3803 H   0  0  0  0  0  0  0  0  0  0  0  0
    0.8335    5.3386   -5.7436 H   0  0  0  0  0  0  0  0  0  0  0  0
   -1.1479    7.5643  -10.4905 H   0  0  0  0  0  0  0  0  0  0  0  0
   -0.5734    5.9725  -11.0511 H   0  0  0  0  0  0  0  0  0  0  0  0
   -0.4269    4.8142   -4.2798 H   0  0  0  0  0  0  0  0  0  0  0  0
   -3.1369    4.3422   -3.3432 H   0  0  0  0  0  0  0  0  0  0  0  0
   -1.9441    3.0647    2.4510 H   0  0  0  0  0  0  0  0  0  0  0  0
   -3.1729    4.0202    1.5641 H   0  0  0  0  0  0  0  0  0  0  0  0
   -4.3370    2.0874    1.1028 H   0  0  0  0  0  0  0  0  0  0  0  0
   -3.1051    1.1371    1.9910 H   0  0  0  0  0  0  0  0  0  0  0  0
    0.9345   -0.6543   -0.4862 H   0  0  0  0  0  0  0  0  0  0  0  0
   -0.6282   -0.8254    0.3486 H   0  0  0  0  0  0  0  0  0  0  0  0
   -0.5848   -0.4471   -1.3901 H   0  0  0  0  0  0  0  0  0  0  0  0
    1.5703    2.2983   -0.8799 H   0  0  0  0  0  0  0  0  0  0  0  0
    1.0931    2.7290    0.7799 H   0  0  0  0  0  0  0  0  0  0  0  0
    1.9724    1.2124    0.4718 H   0  0  0  0  0  0  0  0  0  0  0  0
   -5.5572    1.7625   -1.5769 O   0  5  0  0  0  0  0  0  0  0  0  0
  1  2  1  0  0  0  0
  1 34  1  0  0  0  0
  1 35  1  0  0  0  0
  1 36  1  0  0  0  0
  2  3  1  0  0  0  0
  2 11  1  0  0  0  0
  2  4  1  0  0  0  0
  4  5  1  0  0  0  0
  4 37  1  0  0  0  0
  4 38  1  0  0  0  0
  5  6  1  0  0  0  0
  5 39  1  0  0  0  0
  5 40  1  0  0  0  0
  6 10  2  0  0  0  0
  6  7  1  0  0  0  0
  7  8  2  0  0  0  0
  7 12  1  0  0  0  0
  8  9  1  0  0  0  0
  8 41  1  0  0  0  0
  9 10  1  0  0  0  0
 10 11  1  0  0  0  0
 11 42  1  0  0  0  0
 11 43  1  0  0  0  0
 12 13  2  0  0  0  0
 12 14  1  0  0  0  0
 14 15  1  0  0  0  0
 14 44  1  0  0  0  0
 15 16  1  0  0  0  0
 15 45  1  0  0  0  0
 16 17  2  0  0  0  0
 16 18  1  0  0  0  0
 18 19  1  0  0  0  0
 18 26  1  0  0  0  0
 18 20  1  0  0  0  0
 20 21  1  0  0  0  0
 20 30  1  0  0  0  0
 20 22  1  0  0  0  0
 22 23  1  0  0  0  0
 22 46  1  0  0  0  0
 22 47  1  0  0  0  0
 23 24  1  0  0  0  0
 23 48  1  0  0  0  0
 23 49  1  0  0  0  0
 24 25  1  0  0  0  0
 24 26  1  0  0  0  0
 24 30  1  0  0  0  0
 26 27  1  0  0  0  0
 26 28  1  0  0  0  0
 28 29  2  0  0  0  0
 28 56  1  0  0  0  0
 30 31  2  0  0  0  0
 31 32  1  0  0  0  0
 31 33  1  0  0  0  0
 32 50  1  0  0  0  0
 32 51  1  0  0  0  0
 32 52  1  0  0  0  0
 33 53  1  0  0  0  0
 33 54  1  0  0  0  0
 33 55  1  0  0  0  0
M  CHG  1  56  -1
M  END
$$$$
ZINC02789077
  -OEChem-08230709463D

 52 54  0     1  0  0  0  0  0999 V2000
    9.3951    9.4783    7.8399 C   0  0  0  0  0  0  0  0  0  0  0  0
    8.3516    8.6072    7.1376 C   0  0  0  0  0  0  0  0  0  0  0  0
    7.3351    9.5026    6.4263 C   0  0  0  0  0  0  0  0  0  0  0  0
    6.2916    8.6315    5.7240 C   0  0  0  0  0  0  0  0  0  0  0  0
    5.3422    9.4678    5.0597 O   0  0  0  0  0  0  0  0  0  0  0  0
    4.3421    8.8480    4.3833 C   0  0  0  0  0  0  0  0  0  0  0  0
    3.3854    9.6031    3.7152 C   0  0  0  0  0  0  0  0  0  0  0  0
    2.3691    8.9780    3.0277 C   0  0  0  0  0  0  0  0  0  0  0  0
    2.3005    7.5825    3.0024 C   0  0  0  0  0  0  0  0  0  0  0  0
    3.2610    6.8271    3.6801 C   0  0  0  0  0  0  0  0  0  0  0  0
    4.2771    7.4597    4.3609 C   0  0  0  0  0  0  0  0  0  0  0  0
    1.2128    6.9084    2.2667 C   0  0  0  0  0  0  0  0  0  0  0  0
    0.3751    7.5674    1.6817 O   0  0  0  0  0  0  0  0  0  0  0  0
    1.1484    5.5624    2.2434 N   0  0  0  0  0  0  0  0  0  0  0  0
    0.1160    4.9225    1.5451 N   0  0  0  0  0  0  0  0  0  0  0  0
    0.0515    3.5765    1.5218 C   0  0  0  0  0  0  0  0  0  0  0  0
    0.8871    2.9192    2.1054 O   0  0  0  0  0  0  0  0  0  0  0  0
   -1.0589    2.8882    0.7707 C   0  0  2  0  0  0  0  0  0  0  0  0
   -2.0291    3.2122    1.1473 H   0  0  0  0  0  0  0  0  0  0  0  0
   -0.9185    1.3400    0.8912 C   0  0  1  0  0  0  0  0  0  0  0  0
   -0.6413    0.9510    1.8709 H   0  0  0  0  0  0  0  0  0  0  0  0
   -2.2421    0.7802    0.2811 C   0  0  0  0  0  0  0  0  0  0  0  0
   -2.1269    1.0663   -1.2336 C   0  0  0  0  0  0  0  0  0  0  0  0
   -0.7463    1.7721   -1.3976 C   0  0  2  0  0  0  0  0  0  0  0  0
   -0.3198    1.7576   -2.4006 H   0  0  0  0  0  0  0  0  0  0  0  0
    0.0844    1.0477   -0.2802 C   0  0  0  0  0  0  0  0  0  0  0  0
   -0.9448    3.1745   -0.7455 C   0  0  1  0  0  0  0  0  0  0  0  0
   -0.0845    3.8127   -0.9473 H   0  0  0  0  0  0  0  0  0  0  0  0
   -2.2086    3.8172   -1.2563 C   0  0  0  0  0  0  0  0  0  0  0  0
   -3.2274    3.7435   -0.6109 O   0  0  0  0  0  0  0  0  0  0  0  0
   10.1192    8.8404    8.3466 H   0  0  0  0  0  0  0  0  0  0  0  0
    9.9081   10.0961    7.1029 H   0  0  0  0  0  0  0  0  0  0  0  0
    8.9013   10.1189    8.5705 H   0  0  0  0  0  0  0  0  0  0  0  0
    7.8385    7.9894    7.8746 H   0  0  0  0  0  0  0  0  0  0  0  0
    8.8454    7.9665    6.4070 H   0  0  0  0  0  0  0  0  0  0  0  0
    7.8481   10.1204    5.6893 H   0  0  0  0  0  0  0  0  0  0  0  0
    6.8413   10.1432    7.1570 H   0  0  0  0  0  0  0  0  0  0  0  0
    5.7785    8.0137    6.4610 H   0  0  0  0  0  0  0  0  0  0  0  0
    6.7854    7.9908    4.9934 H   0  0  0  0  0  0  0  0  0  0  0  0
    3.4393   10.6816    3.7350 H   0  0  0  0  0  0  0  0  0  0  0  0
    1.6259    9.5654    2.5092 H   0  0  0  0  0  0  0  0  0  0  0  0
    3.2086    5.7484    3.6669 H   0  0  0  0  0  0  0  0  0  0  0  0
    5.0220    6.8765    4.8818 H   0  0  0  0  0  0  0  0  0  0  0  0
    1.8167    5.0367    2.7101 H   0  0  0  0  0  0  0  0  0  0  0  0
   -0.5523    5.4482    1.0784 H   0  0  0  0  0  0  0  0  0  0  0  0
   -3.1036    1.2992    0.7014 H   0  0  0  0  0  0  0  0  0  0  0  0
   -2.3208   -0.2921    0.4604 H   0  0  0  0  0  0  0  0  0  0  0  0
   -2.9318    1.7260   -1.5580 H   0  0  0  0  0  0  0  0  0  0  0  0
   -2.1469    0.1346   -1.7989 H   0  0  0  0  0  0  0  0  0  0  0  0
    0.1864   -0.0201   -0.4742 H   0  0  0  0  0  0  0  0  0  0  0  0
    1.0522    1.5222   -0.1178 H   0  0  0  0  0  0  0  0  0  0  0  0
   -2.2024    4.4715   -2.4284 O   0  5  0  0  0  0  0  0  0  0  0  0
  1  2  1  0  0  0  0
  1 31  1  0  0  0  0
  1 32  1  0  0  0  0
  1 33  1  0  0  0  0
  2  3  1  0  0  0  0
  2 34  1  0  0  0  0
  2 35  1  0  0  0  0
  3  4  1  0  0  0  0
  3 36  1  0  0  0  0
  3 37  1  0  0  0  0
  4  5  1  0  0  0  0
  4 38  1  0  0  0  0
  4 39  1  0  0  0  0
  5  6  1  0  0  0  0
  6 11  2  0  0  0  0
  6  7  1  0  0  0  0
  7  8  2  0  0  0  0
  7 40  1  0  0  0  0
  8  9  1  0  0  0  0
  8 41  1  0  0  0  0
  9 10  2  0  0  0  0
  9 12  1  0  0  0  0
 10 11  1  0  0  0  0
 10 42  1  0  0  0  0
 11 43  1  0  0  0  0
 12 13  2  0  0  0  0
 12 14  1  0  0  0  0
 14 15  1  0  0  0  0
 14 44  1  0  0  0  0
 15 16  1  0  0  0  0
 15 45  1  0  0  0  0
 16 17  2  0  0  0  0
 16 18  1  0  0  0  0
 18 19  1  0  0  0  0
 18 27  1  0  0  0  0
 18 20  1  0  0  0  0
 20 21  1  0  0  0  0
 20 26  1  0  0  0  0
 20 22  1  0  0  0  0
 22 23  1  0  0  0  0
 22 46  1  0  0  0  0
 22 47  1  0  0  0  0
 23 24  1  0  0  0  0
 23 48  1  0  0  0  0
 23 49  1  0  0  0  0
 24 25  1  0  0  0  0
 24 26  1  0  0  0  0
 24 27  1  0  0  0  0
 26 50  1  0  0  0  0
 26 51  1  0  0  0  0
 27 28  1  0  0  0  0
 27 29  1  0  0  0  0
 29 30  2  0  0  0  0
 29 52  1  0  0  0  0
M  CHG  1  52  -1
M  END
$$$$
ZINC02789159
  -OEChem-08230709463D

 55 57  0     1  0  0  0  0  0999 V2000
   -7.1385   12.4151   -5.3963 C   0  0  0  0  0  0  0  0  0  0  0  0
   -5.6406   12.4935   -5.0944 C   0  0  0  0  0  0  0  0  0  0  0  0
   -5.4225   13.2686   -3.7935 C   0  0  0  0  0  0  0  0  0  0  0  0
   -4.9260   13.2108   -6.2414 C   0  0  0  0  0  0  0  0  0  0  0  0
   -5.0840   11.1006   -4.9486 C   0  0  0  0  0  0  0  0  0  0  0  0
   -5.1667   10.2104   -6.0033 C   0  0  0  0  0  0  0  0  0  0  0  0
   -4.6573    8.9331   -5.8722 C   0  0  0  0  0  0  0  0  0  0  0  0
   -4.0622    8.5438   -4.6809 C   0  0  0  0  0  0  0  0  0  0  0  0
   -3.9856    9.4370   -3.6222 C   0  0  0  0  0  0  0  0  0  0  0  0
   -4.4918   10.7150   -3.7602 C   0  0  0  0  0  0  0  0  0  0  0  0
   -3.5602    7.2878   -4.5495 O   0  0  0  0  0  0  0  0  0  0  0  0
   -2.9618    6.9563   -3.2949 C   0  0  0  0  0  0  0  0  0  0  0  0
   -2.4656    5.5339   -3.3352 C   0  0  0  0  0  0  0  0  0  0  0  0
   -2.6102    4.8695   -4.3394 O   0  0  0  0  0  0  0  0  0  0  0  0
   -1.8611    5.0002   -2.2552 N   0  0  0  0  0  0  0  0  0  0  0  0
   -1.3998    3.6779   -2.2927 N   0  0  0  0  0  0  0  0  0  0  0  0
   -0.7953    3.1442   -1.2128 C   0  0  0  0  0  0  0  0  0  0  0  0
   -0.6507    3.8087   -0.2085 O   0  0  0  0  0  0  0  0  0  0  0  0
   -0.2991    1.7218   -1.2531 C   0  0  2  0  0  0  0  0  0  0  0  0
   -1.1167    1.0397   -1.4862 H   0  0  0  0  0  0  0  0  0  0  0  0
    0.3589    1.3369    0.1071 C   0  0  1  0  0  0  0  0  0  0  0  0
   -0.1508    1.6779    1.0083 H   0  0  0  0  0  0  0  0  0  0  0  0
    0.6027   -0.1996    0.0019 C   0  0  0  0  0  0  0  0  0  0  0  0
    1.7384   -0.3449   -1.0366 C   0  0  0  0  0  0  0  0  0  0  0  0
    2.0739    1.1175   -1.4610 C   0  0  2  0  0  0  0  0  0  0  0  0
    3.0512    1.2683   -1.9196 H   0  0  0  0  0  0  0  0  0  0  0  0
    1.8160    1.8775   -0.1122 C   0  0  0  0  0  0  0  0  0  0  0  0
    0.8460    1.5692   -2.3093 C   0  0  1  0  0  0  0  0  0  0  0  0
    1.0482    2.5259   -2.7909 H   0  0  0  0  0  0  0  0  0  0  0  0
    0.5052    0.5229   -3.3389 C   0  0  0  0  0  0  0  0  0  0  0  0
   -0.3715   -0.2787   -3.1184 O   0  0  0  0  0  0  0  0  0  0  0  0
   -7.6476   11.9041   -4.5791 H   0  0  0  0  0  0  0  0  0  0  0  0
   -7.5411   13.4225   -5.5018 H   0  0  0  0  0  0  0  0  0  0  0  0
   -7.2939   11.8628   -6.3231 H   0  0  0  0  0  0  0  0  0  0  0  0
   -4.3554   13.3245   -3.5784 H   0  0  0  0  0  0  0  0  0  0  0  0
   -5.8251   14.2761   -3.8989 H   0  0  0  0  0  0  0  0  0  0  0  0
   -5.9316   12.7576   -2.9763 H   0  0  0  0  0  0  0  0  0  0  0  0
   -5.0814   12.6585   -7.1682 H   0  0  0  0  0  0  0  0  0  0  0  0
   -5.3286   14.2182   -6.3469 H   0  0  0  0  0  0  0  0  0  0  0  0
   -3.8589   13.2666   -6.0263 H   0  0  0  0  0  0  0  0  0  0  0  0
   -5.6297   10.5141   -6.9306 H   0  0  0  0  0  0  0  0  0  0  0  0
   -4.7218    8.2382   -6.6964 H   0  0  0  0  0  0  0  0  0  0  0  0
   -3.5268    9.1349   -2.6923 H   0  0  0  0  0  0  0  0  0  0  0  0
   -4.4291   11.4119   -2.9375 H   0  0  0  0  0  0  0  0  0  0  0  0
   -3.7011    7.0609   -2.5008 H   0  0  0  0  0  0  0  0  0  0  0  0
   -2.1249    7.6278   -3.1028 H   0  0  0  0  0  0  0  0  0  0  0  0
   -1.7455    5.5317   -1.4520 H   0  0  0  0  0  0  0  0  0  0  0  0
   -1.5154    3.1465   -3.0959 H   0  0  0  0  0  0  0  0  0  0  0  0
    0.9153   -0.6016    0.9657 H   0  0  0  0  0  0  0  0  0  0  0  0
   -0.2982   -0.7042   -0.3471 H   0  0  0  0  0  0  0  0  0  0  0  0
    2.6094   -0.8183   -0.5834 H   0  0  0  0  0  0  0  0  0  0  0  0
    1.3959   -0.9209   -1.8962 H   0  0  0  0  0  0  0  0  0  0  0  0
    1.8353    2.9595   -0.2425 H   0  0  0  0  0  0  0  0  0  0  0  0
    2.4953    1.5532    0.6761 H   0  0  0  0  0  0  0  0  0  0  0  0
    1.1758    0.4814   -4.5010 O   0  5  0  0  0  0  0  0  0  0  0  0
  1  2  1  0  0  0  0
  1 32  1  0  0  0  0
  1 33  1  0  0  0  0
  1 34  1  0  0  0  0
  2  3  1  0  0  0  0
  2  4  1  0  0  0  0
  2  5  1  0  0  0  0
  3 35  1  0  0  0  0
  3 36  1  0  0  0  0
  3 37  1  0  0  0  0
  4 38  1  0  0  0  0
  4 39  1  0  0  0  0
  4 40  1  0  0  0  0
  5 10  2  0  0  0  0
  5  6  1  0  0  0  0
  6  7  2  0  0  0  0
  6 41  1  0  0  0  0
  7  8  1  0  0  0  0
  7 42  1  0  0  0  0
  8  9  2  0  0  0  0
  8 11  1  0  0  0  0
  9 10  1  0  0  0  0
  9 43  1  0  0  0  0
 10 44  1  0  0  0  0
 11 12  1  0  0  0  0
 12 13  1  0  0  0  0
 12 45  1  0  0  0  0
 12 46  1  0  0  0  0
 13 14  2  0  0  0  0
 13 15  1  0  0  0  0
 15 16  1  0  0  0  0
 15 47  1  0  0  0  0
 16 17  1  0  0  0  0
 16 48  1  0  0  0  0
 17 18  2  0  0  0  0
 17 19  1  0  0  0  0
 19 20  1  0  0  0  0
 19 28  1  0  0  0  0
 19 21  1  0  0  0  0
 21 22  1  0  0  0  0
 21 27  1  0  0  0  0
 21 23  1  0  0  0  0
 23 24  1  0  0  0  0
 23 49  1  0  0  0  0
 23 50  1  0  0  0  0
 24 25  1  0  0  0  0
 24 51  1  0  0  0  0
 24 52  1  0  0  0  0
 25 26  1  0  0  0  0
 25 27  1  0  0  0  0
 25 28  1  0  0  0  0
 27 53  1  0  0  0  0
 27 54  1  0  0  0  0
 28 29  1  0  0  0  0
 28 30  1  0  0  0  0
 30 31  2  0  0  0  0
 30 55  1  0  0  0  0
M  CHG  1  55  -1
M  END
$$$$
ZINC02789341
  -OEChem-08230709463D

 50 52  0     1  0  0  0  0  0999 V2000
   10.0206    5.4399   -5.4718 C   0  0  0  0  0  0  0  0  0  0  0  0
    9.0557    4.4432   -4.8831 C   0  0  0  0  0  0  0  0  0  0  0  0
    8.4767    4.6876   -3.6513 C   0  0  0  0  0  0  0  0  0  0  0  0
    7.5880    3.7782   -3.1119 C   0  0  0  0  0  0  0  0  0  0  0  0
    7.2845    2.6135   -3.8023 C   0  0  0  0  0  0  0  0  0  0  0  0
    7.8662    2.3709   -5.0379 C   0  0  0  0  0  0  0  0  0  0  0  0
    8.7506    3.2863   -5.5755 C   0  0  0  0  0  0  0  0  0  0  0  0
    9.3826    3.0235   -6.9181 C   0  0  0  0  0  0  0  0  0  0  0  0
    6.4144    1.7146   -3.2714 O   0  0  0  0  0  0  0  0  0  0  0  0
    5.7640    2.0828   -2.0534 C   0  0  2  0  0  0  0  0  0  0  0  0
    5.5636    3.1542   -2.0579 H   0  0  0  0  0  0  0  0  0  0  0  0
    6.6681    1.7380   -0.8681 C   0  0  0  0  0  0  0  0  0  0  0  0
    4.4648    1.3292   -1.9300 C   0  0  0  0  0  0  0  0  0  0  0  0
    4.1715    0.4874   -2.7523 O   0  0  0  0  0  0  0  0  0  0  0  0
    3.6287    1.5908   -0.9058 N   0  0  0  0  0  0  0  0  0  0  0  0
    2.4208    0.8903   -0.7911 N   0  0  0  0  0  0  0  0  0  0  0  0
    1.5847    1.1519    0.2331 C   0  0  0  0  0  0  0  0  0  0  0  0
    1.8780    1.9937    1.0555 O   0  0  0  0  0  0  0  0  0  0  0  0
    0.2855    0.3984    0.3565 C   0  0  1  0  0  0  0  0  0  0  0  0
    0.4712   -0.6725    0.4391 H   0  0  0  0  0  0  0  0  0  0  0  0
   -0.5316    0.9103    1.5853 C   0  0  1  0  0  0  0  0  0  0  0  0
    0.0256    1.0486    2.5119 H   0  0  0  0  0  0  0  0  0  0  0  0
   -1.2216    2.1781    0.9568 C   0  0  0  0  0  0  0  0  0  0  0  0
   -1.8954    1.3545   -0.2011 C   0  0  1  0  0  0  0  0  0  0  0  0
   -2.5623    1.8921   -0.8751 H   0  0  0  0  0  0  0  0  0  0  0  0
   -0.6352    0.6996   -0.8513 C   0  0  2  0  0  0  0  0  0  0  0  0
   -0.1523    1.3958   -1.5371 H   0  0  0  0  0  0  0  0  0  0  0  0
   -1.0085   -0.5748   -1.5637 C   0  0  0  0  0  0  0  0  0  0  0  0
   -0.5908   -1.6355   -1.1632 O   0  0  0  0  0  0  0  0  0  0  0  0
   -2.5248    0.2205    0.6173 C   0  0  0  0  0  0  0  0  0  0  0  0
   -1.7411   -0.0359    1.6454 C   0  0  0  0  0  0  0  0  0  0  0  0
    9.4726    6.1628   -6.0761 H   0  0  0  0  0  0  0  0  0  0  0  0
   10.5420    5.9594   -4.6678 H   0  0  0  0  0  0  0  0  0  0  0  0
   10.7451    4.9184   -6.0973 H   0  0  0  0  0  0  0  0  0  0  0  0
    8.7164    5.5924   -3.1124 H   0  0  0  0  0  0  0  0  0  0  0  0
    7.1326    3.9717   -2.1519 H   0  0  0  0  0  0  0  0  0  0  0  0
    7.6279    1.4673   -5.5794 H   0  0  0  0  0  0  0  0  0  0  0  0
    8.7543    3.4430   -7.7038 H   0  0  0  0  0  0  0  0  0  0  0  0
   10.3677    3.4889   -6.9533 H   0  0  0  0  0  0  0  0  0  0  0  0
    9.4831    1.9486   -7.0683 H   0  0  0  0  0  0  0  0  0  0  0  0
    6.8685    0.6666   -0.8636 H   0  0  0  0  0  0  0  0  0  0  0  0
    7.6078    2.2830   -0.9574 H   0  0  0  0  0  0  0  0  0  0  0  0
    6.1720    2.0188    0.0609 H   0  0  0  0  0  0  0  0  0  0  0  0
    3.8632    2.2641   -0.2480 H   0  0  0  0  0  0  0  0  0  0  0  0
    2.1863    0.2170   -1.4488 H   0  0  0  0  0  0  0  0  0  0  0  0
   -0.4981    2.9043    0.5864 H   0  0  0  0  0  0  0  0  0  0  0  0
   -1.9523    2.6311    1.6269 H   0  0  0  0  0  0  0  0  0  0  0  0
   -3.4529   -0.2827    0.3897 H   0  0  0  0  0  0  0  0  0  0  0  0
   -1.9181   -0.7848    2.4032 H   0  0  0  0  0  0  0  0  0  0  0  0
   -1.8051   -0.5317   -2.6433 O   0  5  0  0  0  0  0  0  0  0  0  0
  1  2  1  0  0  0  0
  1 32  1  0  0  0  0
  1 33  1  0  0  0  0
  1 34  1  0  0  0  0
  2  7  2  0  0  0  0
  2  3  1  0  0  0  0
  3  4  2  0  0  0  0
  3 35  1  0  0  0  0
  4  5  1  0  0  0  0
  4 36  1  0  0  0  0
  5  6  2  0  0  0  0
  5  9  1  0  0  0  0
  6  7  1  0  0  0  0
  6 37  1  0  0  0  0
  7  8  1  0  0  0  0
  8 38  1  0  0  0  0
  8 39  1  0  0  0  0
  8 40  1  0  0  0  0
  9 10  1  0  0  0  0
 10 11  1  0  0  0  0
 10 12  1  0  0  0  0
 10 13  1  0  0  0  0
 12 41  1  0  0  0  0
 12 42  1  0  0  0  0
 12 43  1  0  0  0  0
 13 14  2  0  0  0  0
 13 15  1  0  0  0  0
 15 16  1  0  0  0  0
 15 44  1  0  0  0  0
 16 17  1  0  0  0  0
 16 45  1  0  0  0  0
 17 18  2  0  0  0  0
 17 19  1  0  0  0  0
 19 20  1  0  0  0  0
 19 26  1  0  0  0  0
 19 21  1  0  0  0  0
 21 22  1  0  0  0  0
 21 31  1  0  0  0  0
 21 23  1  0  0  0  0
 23 24  1  0  0  0  0
 23 46  1  0  0  0  0
 23 47  1  0  0  0  0
 24 25  1  0  0  0  0
 24 26  1  0  0  0  0
 24 30  1  0  0  0  0
 26 27  1  0  0  0  0
 26 28  1  0  0  0  0
 28 29  2  0  0  0  0
 28 50  1  0  0  0  0
 30 31  2  0  0  0  0
 30 48  1  0  0  0  0
 31 49  1  0  0  0  0
M  CHG  1  50  -1
M  END
$$$$
ZINC02789423
  -OEChem-08230709463D

 53 55  0     1  0  0  0  0  0999 V2000
    6.7852  -10.9281    7.1845 C   0  0  0  0  0  0  0  0  0  0  0  0
    7.6612   -9.6911    6.9762 C   0  0  0  0  0  0  0  0  0  0  0  0
    8.6685   -9.9622    5.8569 C   0  0  0  0  0  0  0  0  0  0  0  0
    8.4112   -9.3733    8.2713 C   0  0  0  0  0  0  0  0  0  0  0  0
    6.7931   -8.5188    6.5978 C   0  0  0  0  0  0  0  0  0  0  0  0
    5.8030   -8.0863    7.4605 C   0  0  0  0  0  0  0  0  0  0  0  0
    5.0059   -7.0119    7.1159 C   0  0  0  0  0  0  0  0  0  0  0  0
    5.1996   -6.3668    5.9031 C   0  0  0  0  0  0  0  0  0  0  0  0
    6.1901   -6.8062    5.0367 C   0  0  0  0  0  0  0  0  0  0  0  0
    6.9879   -7.8778    5.3883 C   0  0  0  0  0  0  0  0  0  0  0  0
    4.4169   -5.3096    5.5619 O   0  0  0  0  0  0  0  0  0  0  0  0
    4.6730   -4.6939    4.2980 C   0  0  0  0  0  0  0  0  0  0  0  0
    3.7148   -3.5489    4.0936 C   0  0  0  0  0  0  0  0  0  0  0  0
    2.8934   -3.2859    4.9463 O   0  0  0  0  0  0  0  0  0  0  0  0
    3.7706   -2.8171    2.9632 N   0  0  0  0  0  0  0  0  0  0  0  0
    2.8798   -1.7526    2.7732 N   0  0  0  0  0  0  0  0  0  0  0  0
    2.9356   -1.0207    1.6428 C   0  0  0  0  0  0  0  0  0  0  0  0
    3.7569   -1.2837    0.7901 O   0  0  0  0  0  0  0  0  0  0  0  0
    1.9773    0.1243    1.4384 C   0  0  1  0  0  0  0  0  0  0  0  0
    2.1142    0.8798    2.2121 H   0  0  0  0  0  0  0  0  0  0  0  0
    2.1622    0.7482    0.0184 C   0  0  1  0  0  0  0  0  0  0  0  0
    3.1894    0.9159   -0.3053 H   0  0  0  0  0  0  0  0  0  0  0  0
    1.2920   -0.2495   -0.8633 C   0  0  0  0  0  0  0  0  0  0  0  0
    0.0021   -0.0041    0.0020 C   0  0  1  0  0  0  0  0  0  0  0  0
   -0.9109   -0.4982   -0.3304 H   0  0  0  0  0  0  0  0  0  0  0  0
    0.5152   -0.3849    1.4273 C   0  0  2  0  0  0  0  0  0  0  0  0
    0.4845   -1.4651    1.5696 H   0  0  0  0  0  0  0  0  0  0  0  0
   -0.2972    0.3138    2.4870 C   0  0  0  0  0  0  0  0  0  0  0  0
    0.2375    1.0863    3.2467 O   0  0  0  0  0  0  0  0  0  0  0  0
   -0.0187    1.5294    0.0105 C   0  0  0  0  0  0  0  0  0  0  0  0
    1.2258    1.9629    0.0009 C   0  0  0  0  0  0  0  0  0  0  0  0
    6.2509  -11.1545    6.2618 H   0  0  0  0  0  0  0  0  0  0  0  0
    7.4131  -11.7761    7.4582 H   0  0  0  0  0  0  0  0  0  0  0  0
    6.0676  -10.7350    7.9819 H   0  0  0  0  0  0  0  0  0  0  0  0
    9.2926   -9.0809    5.7085 H   0  0  0  0  0  0  0  0  0  0  0  0
    9.2963  -10.8101    6.1306 H   0  0  0  0  0  0  0  0  0  0  0  0
    8.1342  -10.1886    4.9342 H   0  0  0  0  0  0  0  0  0  0  0  0
    7.6936   -9.1803    9.0687 H   0  0  0  0  0  0  0  0  0  0  0  0
    9.0390  -10.2213    8.5450 H   0  0  0  0  0  0  0  0  0  0  0  0
    9.0353   -8.4921    8.1229 H   0  0  0  0  0  0  0  0  0  0  0  0
    5.6523   -8.5891    8.4043 H   0  0  0  0  0  0  0  0  0  0  0  0
    4.2328   -6.6743    7.7902 H   0  0  0  0  0  0  0  0  0  0  0  0
    6.3399   -6.3085    4.0901 H   0  0  0  0  0  0  0  0  0  0  0  0
    7.7616   -8.2180    4.7158 H   0  0  0  0  0  0  0  0  0  0  0  0
    4.5380   -5.4270    3.5027 H   0  0  0  0  0  0  0  0  0  0  0  0
    5.6964   -4.3194    4.2770 H   0  0  0  0  0  0  0  0  0  0  0  0
    4.4275   -3.0274    2.2812 H   0  0  0  0  0  0  0  0  0  0  0  0
    2.2228   -1.5422    3.4552 H   0  0  0  0  0  0  0  0  0  0  0  0
    1.6504   -1.2767   -0.7966 H   0  0  0  0  0  0  0  0  0  0  0  0
    1.1704    0.0770   -1.8961 H   0  0  0  0  0  0  0  0  0  0  0  0
   -0.9033    2.1489    0.0182 H   0  0  0  0  0  0  0  0  0  0  0  0
    1.5341    2.9980    0.0032 H   0  0  0  0  0  0  0  0  0  0  0  0
   -1.6148    0.0778    2.5869 O   0  5  0  0  0  0  0  0  0  0  0  0
  1  2  1  0  0  0  0
  1 32  1  0  0  0  0
  1 33  1  0  0  0  0
  1 34  1  0  0  0  0
  2  3  1  0  0  0  0
  2  4  1  0  0  0  0
  2  5  1  0  0  0  0
  3 35  1  0  0  0  0
  3 36  1  0  0  0  0
  3 37  1  0  0  0  0
  4 38  1  0  0  0  0
  4 39  1  0  0  0  0
  4 40  1  0  0  0  0
  5 10  2  0  0  0  0
  5  6  1  0  0  0  0
  6  7  2  0  0  0  0
  6 41  1  0  0  0  0
  7  8  1  0  0  0  0
  7 42  1  0  0  0  0
  8  9  2  0  0  0  0
  8 11  1  0  0  0  0
  9 10  1  0  0  0  0
  9 43  1  0  0  0  0
 10 44  1  0  0  0  0
 11 12  1  0  0  0  0
 12 13  1  0  0  0  0
 12 45  1  0  0  0  0
 12 46  1  0  0  0  0
 13 14  2  0  0  0  0
 13 15  1  0  0  0  0
 15 16  1  0  0  0  0
 15 47  1  0  0  0  0
 16 17  1  0  0  0  0
 16 48  1  0  0  0  0
 17 18  2  0  0  0  0
 17 19  1  0  0  0  0
 19 20  1  0  0  0  0
 19 26  1  0  0  0  0
 19 21  1  0  0  0  0
 21 22  1  0  0  0  0
 21 31  1  0  0  0  0
 21 23  1  0  0  0  0
 23 24  1  0  0  0  0
 23 49  1  0  0  0  0
 23 50  1  0  0  0  0
 24 25  1  0  0  0  0
 24 26  1  0  0  0  0
 24 30  1  0  0  0  0
 26 27  1  0  0  0  0
 26 28  1  0  0  0  0
 28 29  2  0  0  0  0
 28 53  1  0  0  0  0
 30 31  2  0  0  0  0
 30 51  1  0  0  0  0
 31 52  1  0  0  0  0
M  CHG  1  53  -1
M  END
$$$$
ZINC02793043
  -OEChem-08230709463D

 54 56  0     1  0  0  0  0  0999 V2000
    2.7313   -4.9899   -3.6276 C   0  0  0  0  0  0  0  0  0  0  0  0
    2.2401   -3.6158   -4.0875 C   0  0  0  0  0  0  0  0  0  0  0  0
    2.6865   -2.6028   -3.1479 O   0  0  0  0  0  0  0  0  0  0  0  0
    2.3349   -1.3272   -3.4099 C   0  0  0  0  0  0  0  0  0  0  0  0
    1.6730   -1.0693   -4.3973 O   0  0  0  0  0  0  0  0  0  0  0  0
    2.7501   -0.2529   -2.5055 C   0  0  0  0  0  0  0  0  0  0  0  0
    1.9215    0.1484   -1.3808 C   0  0  0  0  0  0  0  0  0  0  0  0
    2.4213    1.1513   -0.6271 C   0  0  0  0  0  0  0  0  0  0  0  0
    3.9658    1.5635   -1.3879 S   0  0  0  0  0  0  0  0  0  0  0  0
    3.9502    0.4209   -2.6903 C   0  0  0  0  0  0  0  0  0  0  0  0
    4.9041    0.2266   -3.6770 N   0  0  0  0  0  0  0  0  0  0  0  0
    6.0180    0.9851   -3.6962 C   0  0  0  0  0  0  0  0  0  0  0  0
    6.1858    1.8376   -2.8501 O   0  0  0  0  0  0  0  0  0  0  0  0
    7.0551    0.7738   -4.7690 C   0  0  1  0  0  0  0  0  0  0  0  0
    6.6053    0.2566   -5.6165 H   0  0  0  0  0  0  0  0  0  0  0  0
    7.6060    2.1265   -5.2254 C   0  0  0  0  0  0  0  0  0  0  0  0
    8.4503    2.7325   -4.1428 C   0  0  0  0  0  0  0  0  0  0  0  0
    8.9319    2.0687   -3.1413 C   0  0  0  0  0  0  0  0  0  0  0  0
    8.7044    0.6023   -2.9172 C   0  0  0  0  0  0  0  0  0  0  0  0
    8.2151   -0.0583   -4.2080 C   0  0  1  0  0  0  0  0  0  0  0  0
    9.0275   -0.0908   -4.9341 H   0  0  0  0  0  0  0  0  0  0  0  0
    7.7386   -1.4570   -3.9119 C   0  0  0  0  0  0  0  0  0  0  0  0
    6.5891   -1.7616   -4.1262 O   0  0  0  0  0  0  0  0  0  0  0  0
    9.7728    2.8148   -2.1378 C   0  0  0  0  0  0  0  0  0  0  0  0
    8.7561    4.2058   -4.2265 C   0  0  0  0  0  0  0  0  0  0  0  0
    1.7938    1.7701    0.5839 C   0  0  0  0  0  0  0  0  0  0  0  0
    0.3169    1.3521    0.6303 C   0  0  0  0  0  0  0  0  0  0  0  0
    0.2250   -0.1599    0.4050 C   0  0  0  0  0  0  0  0  0  0  0  0
    0.5803   -0.4923   -1.0453 C   0  0  0  0  0  0  0  0  0  0  0  0
    2.3272   -5.2079   -2.6390 H   0  0  0  0  0  0  0  0  0  0  0  0
    2.3962   -5.7503   -4.3329 H   0  0  0  0  0  0  0  0  0  0  0  0
    3.8204   -4.9902   -3.5831 H   0  0  0  0  0  0  0  0  0  0  0  0
    1.1510   -3.6154   -4.1320 H   0  0  0  0  0  0  0  0  0  0  0  0
    2.6442   -3.3977   -5.0761 H   0  0  0  0  0  0  0  0  0  0  0  0
    4.7699   -0.4553   -4.3537 H   0  0  0  0  0  0  0  0  0  0  0  0
    8.2121    1.9864   -6.1204 H   0  0  0  0  0  0  0  0  0  0  0  0
    6.7767    2.7958   -5.4542 H   0  0  0  0  0  0  0  0  0  0  0  0
    9.6384    0.1356   -2.6041 H   0  0  0  0  0  0  0  0  0  0  0  0
    7.9561    0.4680   -2.1361 H   0  0  0  0  0  0  0  0  0  0  0  0
    9.7941    3.8733   -2.3970 H   0  0  0  0  0  0  0  0  0  0  0  0
    9.3447    2.6929   -1.1428 H   0  0  0  0  0  0  0  0  0  0  0  0
   10.7879    2.4178   -2.1476 H   0  0  0  0  0  0  0  0  0  0  0  0
    8.2867    4.6243   -5.1168 H   0  0  0  0  0  0  0  0  0  0  0  0
    8.3678    4.7084   -3.3407 H   0  0  0  0  0  0  0  0  0  0  0  0
    9.8350    4.3503   -4.2826 H   0  0  0  0  0  0  0  0  0  0  0  0
    1.8663    2.8558    0.5207 H   0  0  0  0  0  0  0  0  0  0  0  0
    2.3032    1.4191    1.4813 H   0  0  0  0  0  0  0  0  0  0  0  0
   -0.2349    1.8723   -0.1526 H   0  0  0  0  0  0  0  0  0  0  0  0
   -0.1032    1.6025    1.6044 H   0  0  0  0  0  0  0  0  0  0  0  0
    0.9195   -0.6686    1.0736 H   0  0  0  0  0  0  0  0  0  0  0  0
   -0.7902   -0.4963    0.6153 H   0  0  0  0  0  0  0  0  0  0  0  0
    0.6515   -1.5733   -1.1655 H   0  0  0  0  0  0  0  0  0  0  0  0
   -0.1891   -0.0985   -1.7094 H   0  0  0  0  0  0  0  0  0  0  0  0
    8.5910   -2.3644   -3.4102 O   0  5  0  0  0  0  0  0  0  0  0  0
  1  2  1  0  0  0  0
  1 30  1  0  0  0  0
  1 31  1  0  0  0  0
  1 32  1  0  0  0  0
  2  3  1  0  0  0  0
  2 33  1  0  0  0  0
  2 34  1  0  0  0  0
  3  4  1  0  0  0  0
  4  5  2  0  0  0  0
  4  6  1  0  0  0  0
  6 10  2  0  0  0  0
  6  7  1  0  0  0  0
  7 29  1  0  0  0  0
  7  8  2  0  0  0  0
  8  9  1  0  0  0  0
  8 26  1  0  0  0  0
  9 10  1  0  0  0  0
 10 11  1  0  0  0  0
 11 12  1  0  0  0  0
 11 35  1  0  0  0  0
 12 13  2  0  0  0  0
 12 14  1  0  0  0  0
 14 15  1  0  0  0  0
 14 20  1  0  0  0  0
 14 16  1  0  0  0  0
 16 17  1  0  0  0  0
 16 36  1  0  0  0  0
 16 37  1  0  0  0  0
 17 18  2  0  0  0  0
 17 25  1  0  0  0  0
 18 19  1  0  0  0  0
 18 24  1  0  0  0  0
 19 20  1  0  0  0  0
 19 38  1  0  0  0  0
 19 39  1  0  0  0  0
 20 21  1  0  0  0  0
 20 22  1  0  0  0  0
 22 23  2  0  0  0  0
 22 54  1  0  0  0  0
 24 40  1  0  0  0  0
 24 41  1  0  0  0  0
 24 42  1  0  0  0  0
 25 43  1  0  0  0  0
 25 44  1  0  0  0  0
 25 45  1  0  0  0  0
 26 27  1  0  0  0  0
 26 46  1  0  0  0  0
 26 47  1  0  0  0  0
 27 28  1  0  0  0  0
 27 48  1  0  0  0  0
 27 49  1  0  0  0  0
 28 29  1  0  0  0  0
 28 50  1  0  0  0  0
 28 51  1  0  0  0  0
 29 52  1  0  0  0  0
 29 53  1  0  0  0  0
M  CHG  1  54  -1
M  END
$$$$
ZINC02793044
  -OEChem-08230709463D

 54 56  0     1  0  0  0  0  0999 V2000
   -1.3951   -0.7471    7.2007 C   0  0  0  0  0  0  0  0  0  0  0  0
   -1.8545    0.5897    6.6153 C   0  0  0  0  0  0  0  0  0  0  0  0
   -2.1845    0.4157    5.2121 O   0  0  0  0  0  0  0  0  0  0  0  0
   -2.6099    1.5071    4.5432 C   0  0  0  0  0  0  0  0  0  0  0  0
   -2.7023    2.5751    5.1180 O   0  0  0  0  0  0  0  0  0  0  0  0
   -2.9605    1.4061    3.1250 C   0  0  0  0  0  0  0  0  0  0  0  0
   -1.9677    1.6221    2.0856 C   0  0  0  0  0  0  0  0  0  0  0  0
   -2.4235    1.4991    0.8204 C   0  0  0  0  0  0  0  0  0  0  0  0
   -4.1401    1.1024    0.9937 S   0  0  0  0  0  0  0  0  0  0  0  0
   -4.2539    1.1001    2.7226 C   0  0  0  0  0  0  0  0  0  0  0  0
   -5.3656    0.8519    3.5123 N   0  0  0  0  0  0  0  0  0  0  0  0
   -6.5511    0.5687    2.9371 C   0  0  0  0  0  0  0  0  0  0  0  0
   -6.6451    0.5309    1.7285 O   0  0  0  0  0  0  0  0  0  0  0  0
   -7.7599    0.2989    3.7956 C   0  0  2  0  0  0  0  0  0  0  0  0
   -7.9670    1.1679    4.4201 H   0  0  0  0  0  0  0  0  0  0  0  0
   -7.5014   -0.9243    4.6780 C   0  0  0  0  0  0  0  0  0  0  0  0
   -8.7753   -1.3635    5.3387 C   0  0  0  0  0  0  0  0  0  0  0  0
   -9.9559   -1.0030    4.9493 C   0  0  0  0  0  0  0  0  0  0  0  0
  -10.2155   -0.0875    3.7889 C   0  0  0  0  0  0  0  0  0  0  0  0
   -8.9718    0.0053    2.9023 C   0  0  1  0  0  0  0  0  0  0  0  0
   -8.8221   -0.9401    2.3809 H   0  0  0  0  0  0  0  0  0  0  0  0
   -9.1419    1.1161    1.8982 C   0  0  0  0  0  0  0  0  0  0  0  0
   -8.3745    2.0494    1.8939 O   0  0  0  0  0  0  0  0  0  0  0  0
  -11.1437   -1.5354    5.7088 C   0  0  0  0  0  0  0  0  0  0  0  0
   -8.6736   -2.2808    6.5300 C   0  0  0  0  0  0  0  0  0  0  0  0
   -1.6368    1.6653   -0.4432 C   0  0  0  0  0  0  0  0  0  0  0  0
   -0.3139    2.3658   -0.1007 C   0  0  0  0  0  0  0  0  0  0  0  0
    0.3143    1.6690    1.1097 C   0  0  0  0  0  0  0  0  0  0  0  0
   -0.5109    1.9638    2.3636 C   0  0  0  0  0  0  0  0  0  0  0  0
   -2.1956   -1.4805    7.1039 H   0  0  0  0  0  0  0  0  0  0  0  0
   -0.5149   -1.0967    6.6611 H   0  0  0  0  0  0  0  0  0  0  0  0
   -1.1473   -0.6165    8.2541 H   0  0  0  0  0  0  0  0  0  0  0  0
   -1.0540    1.3231    6.7121 H   0  0  0  0  0  0  0  0  0  0  0  0
   -2.7347    0.9393    7.1549 H   0  0  0  0  0  0  0  0  0  0  0  0
   -5.2905    0.8822    4.4789 H   0  0  0  0  0  0  0  0  0  0  0  0
   -7.1139   -1.7373    4.0641 H   0  0  0  0  0  0  0  0  0  0  0  0
   -6.7671   -0.6698    5.4423 H   0  0  0  0  0  0  0  0  0  0  0  0
  -10.4685    0.9052    4.1614 H   0  0  0  0  0  0  0  0  0  0  0  0
  -11.0484   -0.4768    3.2034 H   0  0  0  0  0  0  0  0  0  0  0  0
  -11.4120   -2.5182    5.3211 H   0  0  0  0  0  0  0  0  0  0  0  0
  -10.8916   -1.6183    6.7660 H   0  0  0  0  0  0  0  0  0  0  0  0
  -11.9866   -0.8549    5.5885 H   0  0  0  0  0  0  0  0  0  0  0  0
   -9.2735   -3.1736    6.3534 H   0  0  0  0  0  0  0  0  0  0  0  0
   -7.6326   -2.5667    6.6807 H   0  0  0  0  0  0  0  0  0  0  0  0
   -9.0411   -1.7658    7.4176 H   0  0  0  0  0  0  0  0  0  0  0  0
   -2.2017    2.2729   -1.1502 H   0  0  0  0  0  0  0  0  0  0  0  0
   -1.4324    0.6877   -0.8797 H   0  0  0  0  0  0  0  0  0  0  0  0
   -0.5056    3.4118    0.1387 H   0  0  0  0  0  0  0  0  0  0  0  0
    0.3643    2.3020   -0.9516 H   0  0  0  0  0  0  0  0  0  0  0  0
    0.3378    0.5932    0.9363 H   0  0  0  0  0  0  0  0  0  0  0  0
    1.3311    2.0353    1.2510 H   0  0  0  0  0  0  0  0  0  0  0  0
   -0.1466    1.3562    3.1919 H   0  0  0  0  0  0  0  0  0  0  0  0
   -0.4252    3.0203    2.6174 H   0  0  0  0  0  0  0  0  0  0  0  0
  -10.1459    1.0688    1.0086 O   0  5  0  0  0  0  0  0  0  0  0  0
  1  2  1  0  0  0  0
  1 30  1  0  0  0  0
  1 31  1  0  0  0  0
  1 32  1  0  0  0  0
  2  3  1  0  0  0  0
  2 33  1  0  0  0  0
  2 34  1  0  0  0  0
  3  4  1  0  0  0  0
  4  5  2  0  0  0  0
  4  6  1  0  0  0  0
  6 10  2  0  0  0  0
  6  7  1  0  0  0  0
  7 29  1  0  0  0  0
  7  8  2  0  0  0  0
  8  9  1  0  0  0  0
  8 26  1  0  0  0  0
  9 10  1  0  0  0  0
 10 11  1  0  0  0  0
 11 12  1  0  0  0  0
 11 35  1  0  0  0  0
 12 13  2  0  0  0  0
 12 14  1  0  0  0  0
 14 15  1  0  0  0  0
 14 20  1  0  0  0  0
 14 16  1  0  0  0  0
 16 17  1  0  0  0  0
 16 36  1  0  0  0  0
 16 37  1  0  0  0  0
 17 18  2  0  0  0  0
 17 25  1  0  0  0  0
 18 19  1  0  0  0  0
 18 24  1  0  0  0  0
 19 20  1  0  0  0  0
 19 38  1  0  0  0  0
 19 39  1  0  0  0  0
 20 21  1  0  0  0  0
 20 22  1  0  0  0  0
 22 23  2  0  0  0  0
 22 54  1  0  0  0  0
 24 40  1  0  0  0  0
 24 41  1  0  0  0  0
 24 42  1  0  0  0  0
 25 43  1  0  0  0  0
 25 44  1  0  0  0  0
 25 45  1  0  0  0  0
 26 27  1  0  0  0  0
 26 46  1  0  0  0  0
 26 47  1  0  0  0  0
 27 28  1  0  0  0  0
 27 48  1  0  0  0  0
 27 49  1  0  0  0  0
 28 29  1  0  0  0  0
 28 50  1  0  0  0  0
 28 51  1  0  0  0  0
 29 52  1  0  0  0  0
 29 53  1  0  0  0  0
M  CHG  1  54  -1
M  END
$$$$
ZINC02793045
  -OEChem-08230709463D

 54 56  0     1  0  0  0  0  0999 V2000
    3.2947   -5.3653   -3.2695 C   0  0  0  0  0  0  0  0  0  0  0  0
    3.2477   -5.0099   -1.7821 C   0  0  0  0  0  0  0  0  0  0  0  0
    2.2592   -3.9689   -1.5641 O   0  0  0  0  0  0  0  0  0  0  0  0
    2.0925   -3.5385   -0.2968 C   0  0  0  0  0  0  0  0  0  0  0  0
    2.7559   -4.0207    0.6016 O   0  0  0  0  0  0  0  0  0  0  0  0
    1.1129   -2.4906   -0.0023 C   0  0  0  0  0  0  0  0  0  0  0  0
    1.4810   -1.0849   -0.0301 C   0  0  0  0  0  0  0  0  0  0  0  0
    0.4830   -0.2230    0.2615 C   0  0  0  0  0  0  0  0  0  0  0  0
   -0.9266   -1.2492    0.5686 S   0  0  0  0  0  0  0  0  0  0  0  0
   -0.2027   -2.8027    0.3145 C   0  0  0  0  0  0  0  0  0  0  0  0
   -0.7933   -4.0534    0.4057 N   0  0  0  0  0  0  0  0  0  0  0  0
   -2.0973   -4.1610    0.7289 C   0  0  0  0  0  0  0  0  0  0  0  0
   -2.7540   -3.1634    0.9400 O   0  0  0  0  0  0  0  0  0  0  0  0
   -2.7393   -5.5207    0.8280 C   0  0  1  0  0  0  0  0  0  0  0  0
   -2.6716   -6.0289   -0.1339 H   0  0  0  0  0  0  0  0  0  0  0  0
   -2.0263   -6.3494    1.8989 C   0  0  0  0  0  0  0  0  0  0  0  0
   -2.8097   -7.5945    2.1955 C   0  0  0  0  0  0  0  0  0  0  0  0
   -4.0523   -7.7634    1.8746 C   0  0  0  0  0  0  0  0  0  0  0  0
   -4.8805   -6.7413    1.1525 C   0  0  0  0  0  0  0  0  0  0  0  0
   -4.2109   -5.3678    1.2329 C   0  0  2  0  0  0  0  0  0  0  0  0
   -4.2728   -4.9895    2.2533 H   0  0  0  0  0  0  0  0  0  0  0  0
   -4.8987   -4.4129    0.2915 C   0  0  0  0  0  0  0  0  0  0  0  0
   -4.2790   -3.9042   -0.6124 O   0  0  0  0  0  0  0  0  0  0  0  0
   -4.7081   -9.0672    2.2498 C   0  0  0  0  0  0  0  0  0  0  0  0
   -2.1060   -8.7181    2.9120 C   0  0  0  0  0  0  0  0  0  0  0  0
    0.5658    1.2715    0.3106 C   0  0  0  0  0  0  0  0  0  0  0  0
    2.0476    1.6730    0.3461 C   0  0  0  0  0  0  0  0  0  0  0  0
    2.7954    0.8972   -0.7414 C   0  0  0  0  0  0  0  0  0  0  0  0
    2.8809   -0.5819   -0.3605 C   0  0  0  0  0  0  0  0  0  0  0  0
    4.0368   -6.1467   -3.4331 H   0  0  0  0  0  0  0  0  0  0  0  0
    2.3154   -5.7216   -3.5890 H   0  0  0  0  0  0  0  0  0  0  0  0
    3.5653   -4.4807   -3.8461 H   0  0  0  0  0  0  0  0  0  0  0  0
    4.2271   -4.6536   -1.4626 H   0  0  0  0  0  0  0  0  0  0  0  0
    2.9771   -5.8944   -1.2056 H   0  0  0  0  0  0  0  0  0  0  0  0
   -0.2680   -4.8512    0.2368 H   0  0  0  0  0  0  0  0  0  0  0  0
   -1.0335   -6.6235    1.5420 H   0  0  0  0  0  0  0  0  0  0  0  0
   -1.9324   -5.7584    2.8099 H   0  0  0  0  0  0  0  0  0  0  0  0
   -4.9829   -7.0323    0.1071 H   0  0  0  0  0  0  0  0  0  0  0  0
   -5.8680   -6.6871    1.6109 H   0  0  0  0  0  0  0  0  0  0  0  0
   -4.0167   -9.6636    2.8451 H   0  0  0  0  0  0  0  0  0  0  0  0
   -5.6085   -8.8671    2.8307 H   0  0  0  0  0  0  0  0  0  0  0  0
   -4.9735   -9.6140    1.3450 H   0  0  0  0  0  0  0  0  0  0  0  0
   -1.0530   -8.4660    3.0375 H   0  0  0  0  0  0  0  0  0  0  0  0
   -2.5628   -8.8677    3.8903 H   0  0  0  0  0  0  0  0  0  0  0  0
   -2.1931   -9.6334    2.3265 H   0  0  0  0  0  0  0  0  0  0  0  0
    0.0919    1.6948   -0.5750 H   0  0  0  0  0  0  0  0  0  0  0  0
    0.0646    1.6379    1.2065 H   0  0  0  0  0  0  0  0  0  0  0  0
    2.1407    2.7432    0.1612 H   0  0  0  0  0  0  0  0  0  0  0  0
    2.4685    1.4308    1.3220 H   0  0  0  0  0  0  0  0  0  0  0  0
    3.8016    1.3023   -0.8484 H   0  0  0  0  0  0  0  0  0  0  0  0
    2.2636    0.9972   -1.6876 H   0  0  0  0  0  0  0  0  0  0  0  0
    3.5259   -0.6982    0.5104 H   0  0  0  0  0  0  0  0  0  0  0  0
    3.2870   -1.1535   -1.1950 H   0  0  0  0  0  0  0  0  0  0  0  0
   -6.1998   -4.1275    0.4572 O   0  5  0  0  0  0  0  0  0  0  0  0
  1  2  1  0  0  0  0
  1 30  1  0  0  0  0
  1 31  1  0  0  0  0
  1 32  1  0  0  0  0
  2  3  1  0  0  0  0
  2 33  1  0  0  0  0
  2 34  1  0  0  0  0
  3  4  1  0  0  0  0
  4  5  2  0  0  0  0
  4  6  1  0  0  0  0
  6 10  2  0  0  0  0
  6  7  1  0  0  0  0
  7 29  1  0  0  0  0
  7  8  2  0  0  0  0
  8  9  1  0  0  0  0
  8 26  1  0  0  0  0
  9 10  1  0  0  0  0
 10 11  1  0  0  0  0
 11 12  1  0  0  0  0
 11 35  1  0  0  0  0
 12 13  2  0  0  0  0
 12 14  1  0  0  0  0
 14 15  1  0  0  0  0
 14 20  1  0  0  0  0
 14 16  1  0  0  0  0
 16 17  1  0  0  0  0
 16 36  1  0  0  0  0
 16 37  1  0  0  0  0
 17 18  2  0  0  0  0
 17 25  1  0  0  0  0
 18 19  1  0  0  0  0
 18 24  1  0  0  0  0
 19 20  1  0  0  0  0
 19 38  1  0  0  0  0
 19 39  1  0  0  0  0
 20 21  1  0  0  0  0
 20 22  1  0  0  0  0
 22 23  2  0  0  0  0
 22 54  1  0  0  0  0
 24 40  1  0  0  0  0
 24 41  1  0  0  0  0
 24 42  1  0  0  0  0
 25 43  1  0  0  0  0
 25 44  1  0  0  0  0
 25 45  1  0  0  0  0
 26 27  1  0  0  0  0
 26 46  1  0  0  0  0
 26 47  1  0  0  0  0
 27 28  1  0  0  0  0
 27 48  1  0  0  0  0
 27 49  1  0  0  0  0
 28 29  1  0  0  0  0
 28 50  1  0  0  0  0
 28 51  1  0  0  0  0
 29 52  1  0  0  0  0
 29 53  1  0  0  0  0
M  CHG  1  54  -1
M  END
$$$$
ZINC02794836
  -OEChem-08230709463D

 55 56  0     1  0  0  0  0  0999 V2000
   -5.6533   -4.7518    2.8263 C   0  0  0  0  0  0  0  0  0  0  0  0
   -4.5962   -3.9807    2.0786 C   0  0  0  0  0  0  0  0  0  0  0  0
   -3.4664   -4.6296    1.6152 C   0  0  0  0  0  0  0  0  0  0  0  0
   -2.4964   -3.9252    0.9292 C   0  0  0  0  0  0  0  0  0  0  0  0
   -2.6560   -2.5651    0.7056 C   0  0  0  0  0  0  0  0  0  0  0  0
   -3.7873   -1.9153    1.1768 C   0  0  0  0  0  0  0  0  0  0  0  0
   -4.7574   -2.6256    1.8575 C   0  0  0  0  0  0  0  0  0  0  0  0
   -5.9897   -1.9214    2.3643 C   0  0  0  0  0  0  0  0  0  0  0  0
   -1.7031   -1.8698    0.0309 O   0  0  0  0  0  0  0  0  0  0  0  0
   -1.8771   -0.4545   -0.0632 C   0  0  2  0  0  0  0  0  0  0  0  0
   -2.3325   -0.0827    0.8547 H   0  0  0  0  0  0  0  0  0  0  0  0
   -2.7855   -0.1302   -1.2509 C   0  0  0  0  0  0  0  0  0  0  0  0
   -0.5364    0.2044   -0.2615 C   0  0  0  0  0  0  0  0  0  0  0  0
    0.4575   -0.4751   -0.4077 O   0  0  0  0  0  0  0  0  0  0  0  0
   -0.4419    1.5487   -0.2765 N   0  0  0  0  0  0  0  0  0  0  0  0
    0.8046    2.1613   -0.4608 N   0  0  0  0  0  0  0  0  0  0  0  0
    0.8991    3.5057   -0.4758 C   0  0  0  0  0  0  0  0  0  0  0  0
   -0.0948    4.1851   -0.3296 O   0  0  0  0  0  0  0  0  0  0  0  0
    2.2398    4.1646   -0.6741 C   0  0  1  0  0  0  0  0  0  0  0  0
    2.9153    3.8697    0.1289 H   0  0  0  0  0  0  0  0  0  0  0  0
    2.8270    3.7405   -2.0221 C   0  0  0  0  0  0  0  0  0  0  0  0
    4.0237    4.5834   -2.3527 C   0  0  0  0  0  0  0  0  0  0  0  0
    4.2961    5.7123   -1.7808 C   0  0  0  0  0  0  0  0  0  0  0  0
    3.4584    6.3312   -0.7005 C   0  0  0  0  0  0  0  0  0  0  0  0
    2.0697    5.6891   -0.6771 C   0  0  2  0  0  0  0  0  0  0  0  0
    1.5106    5.9936   -1.5618 H   0  0  0  0  0  0  0  0  0  0  0  0
    1.3335    6.1190    0.5656 C   0  0  0  0  0  0  0  0  0  0  0  0
    0.9791    5.2938    1.3738 O   0  0  0  0  0  0  0  0  0  0  0  0
    5.5310    6.4512   -2.2281 C   0  0  0  0  0  0  0  0  0  0  0  0
    4.9669    4.0849   -3.4172 C   0  0  0  0  0  0  0  0  0  0  0  0
   -5.4286   -4.7358    3.8928 H   0  0  0  0  0  0  0  0  0  0  0  0
   -6.6274   -4.2944    2.6533 H   0  0  0  0  0  0  0  0  0  0  0  0
   -5.6683   -5.7831    2.4736 H   0  0  0  0  0  0  0  0  0  0  0  0
   -3.3426   -5.6883    1.7895 H   0  0  0  0  0  0  0  0  0  0  0  0
   -1.6142   -4.4324    0.5675 H   0  0  0  0  0  0  0  0  0  0  0  0
   -3.9118   -0.8558    1.0079 H   0  0  0  0  0  0  0  0  0  0  0  0
   -5.8070   -1.5500    3.3726 H   0  0  0  0  0  0  0  0  0  0  0  0
   -6.2267   -1.0852    1.7065 H   0  0  0  0  0  0  0  0  0  0  0  0
   -6.8265   -2.6197    2.3803 H   0  0  0  0  0  0  0  0  0  0  0  0
   -2.3301   -0.5021   -2.1687 H   0  0  0  0  0  0  0  0  0  0  0  0
   -3.7552   -0.6068   -1.1074 H   0  0  0  0  0  0  0  0  0  0  0  0
   -2.9182    0.9493   -1.3226 H   0  0  0  0  0  0  0  0  0  0  0  0
   -1.2374    2.0922   -0.1635 H   0  0  0  0  0  0  0  0  0  0  0  0
    1.5995    1.6179   -0.5777 H   0  0  0  0  0  0  0  0  0  0  0  0
    3.1252    2.6933   -1.9729 H   0  0  0  0  0  0  0  0  0  0  0  0
    2.0736    3.8655   -2.7998 H   0  0  0  0  0  0  0  0  0  0  0  0
    3.9427    6.1792    0.2641 H   0  0  0  0  0  0  0  0  0  0  0  0
    3.3591    7.4003   -0.8881 H   0  0  0  0  0  0  0  0  0  0  0  0
    6.0800    5.8407   -2.9450 H   0  0  0  0  0  0  0  0  0  0  0  0
    5.2418    7.3914   -2.6977 H   0  0  0  0  0  0  0  0  0  0  0  0
    6.1645    6.6560   -1.3650 H   0  0  0  0  0  0  0  0  0  0  0  0
    4.5927    3.1450   -3.8229 H   0  0  0  0  0  0  0  0  0  0  0  0
    5.0363    4.8234   -4.2159 H   0  0  0  0  0  0  0  0  0  0  0  0
    5.9538    3.9258   -2.9826 H   0  0  0  0  0  0  0  0  0  0  0  0
    1.0715    7.4188    0.7745 O   0  5  0  0  0  0  0  0  0  0  0  0
  1  2  1  0  0  0  0
  1 31  1  0  0  0  0
  1 32  1  0  0  0  0
  1 33  1  0  0  0  0
  2  7  2  0  0  0  0
  2  3  1  0  0  0  0
  3  4  2  0  0  0  0
  3 34  1  0  0  0  0
  4  5  1  0  0  0  0
  4 35  1  0  0  0  0
  5  6  2  0  0  0  0
  5  9  1  0  0  0  0
  6  7  1  0  0  0  0
  6 36  1  0  0  0  0
  7  8  1  0  0  0  0
  8 37  1  0  0  0  0
  8 38  1  0  0  0  0
  8 39  1  0  0  0  0
  9 10  1  0  0  0  0
 10 11  1  0  0  0  0
 10 12  1  0  0  0  0
 10 13  1  0  0  0  0
 12 40  1  0  0  0  0
 12 41  1  0  0  0  0
 12 42  1  0  0  0  0
 13 14  2  0  0  0  0
 13 15  1  0  0  0  0
 15 16  1  0  0  0  0
 15 43  1  0  0  0  0
 16 17  1  0  0  0  0
 16 44  1  0  0  0  0
 17 18  2  0  0  0  0
 17 19  1  0  0  0  0
 19 20  1  0  0  0  0
 19 25  1  0  0  0  0
 19 21  1  0  0  0  0
 21 22  1  0  0  0  0
 21 45  1  0  0  0  0
 21 46  1  0  0  0  0
 22 23  2  0  0  0  0
 22 30  1  0  0  0  0
 23 24  1  0  0  0  0
 23 29  1  0  0  0  0
 24 25  1  0  0  0  0
 24 47  1  0  0  0  0
 24 48  1  0  0  0  0
 25 26  1  0  0  0  0
 25 27  1  0  0  0  0
 27 28  2  0  0  0  0
 27 55  1  0  0  0  0
 29 49  1  0  0  0  0
 29 50  1  0  0  0  0
 29 51  1  0  0  0  0
 30 52  1  0  0  0  0
 30 53  1  0  0  0  0
 30 54  1  0  0  0  0
M  CHG  1  55  -1
M  END
$$$$
ZINC02797211
  -OEChem-08230709463D

 52 53  0     1  0  0  0  0  0999 V2000
   -3.6595  -11.0530    1.7058 C   0  0  0  0  0  0  0  0  0  0  0  0
   -4.9155  -10.1793    1.7119 C   0  0  0  0  0  0  0  0  0  0  0  0
   -4.5375   -8.7402    1.3556 C   0  0  0  0  0  0  0  0  0  0  0  0
   -5.7106   -7.9242    1.3613 O   0  0  0  0  0  0  0  0  0  0  0  0
   -5.5485   -6.6102    1.0634 C   0  0  0  0  0  0  0  0  0  0  0  0
   -6.6491   -5.7613    1.0513 C   0  0  0  0  0  0  0  0  0  0  0  0
   -6.4889   -4.4274    0.7491 C   0  0  0  0  0  0  0  0  0  0  0  0
   -5.2176   -3.9275    0.4548 C   0  0  0  0  0  0  0  0  0  0  0  0
   -4.1145   -4.7851    0.4632 C   0  0  0  0  0  0  0  0  0  0  0  0
   -4.2824   -6.1168    0.7707 C   0  0  0  0  0  0  0  0  0  0  0  0
   -5.0415   -2.4985    0.1298 C   0  0  0  0  0  0  0  0  0  0  0  0
   -6.0032   -1.7547    0.1180 O   0  0  0  0  0  0  0  0  0  0  0  0
   -3.8146   -2.0182   -0.1539 N   0  0  0  0  0  0  0  0  0  0  0  0
   -3.6474   -0.6618   -0.4623 N   0  0  0  0  0  0  0  0  0  0  0  0
   -2.4205   -0.1815   -0.7460 C   0  0  0  0  0  0  0  0  0  0  0  0
   -1.4612   -0.9234   -0.7342 O   0  0  0  0  0  0  0  0  0  0  0  0
   -2.2407    1.2775   -1.0777 C   0  0  1  0  0  0  0  0  0  0  0  0
   -3.0826    1.8510   -0.6900 H   0  0  0  0  0  0  0  0  0  0  0  0
   -0.9395    1.7897   -0.4563 C   0  0  0  0  0  0  0  0  0  0  0  0
    0.2415    1.1984   -1.1688 C   0  0  0  0  0  0  0  0  0  0  0  0
    0.1786    0.6433   -2.3335 C   0  0  0  0  0  0  0  0  0  0  0  0
   -1.0817    0.5026   -3.1358 C   0  0  0  0  0  0  0  0  0  0  0  0
   -2.1539    1.4534   -2.5991 C   0  0  1  0  0  0  0  0  0  0  0  0
   -1.8838    2.4822   -2.8373 H   0  0  0  0  0  0  0  0  0  0  0  0
   -3.4843    1.1213   -3.2241 C   0  0  0  0  0  0  0  0  0  0  0  0
   -4.4156    0.7969   -2.5261 O   0  0  0  0  0  0  0  0  0  0  0  0
    1.4557    0.1023   -2.9229 C   0  0  0  0  0  0  0  0  0  0  0  0
    1.5818    1.2549   -0.4823 C   0  0  0  0  0  0  0  0  0  0  0  0
   -2.9484  -10.6720    2.4389 H   0  0  0  0  0  0  0  0  0  0  0  0
   -3.9289  -12.0782    1.9596 H   0  0  0  0  0  0  0  0  0  0  0  0
   -3.2065  -11.0311    0.7147 H   0  0  0  0  0  0  0  0  0  0  0  0
   -5.3686  -10.2012    2.7030 H   0  0  0  0  0  0  0  0  0  0  0  0
   -5.6266  -10.5602    0.9789 H   0  0  0  0  0  0  0  0  0  0  0  0
   -4.0844   -8.7183    0.3645 H   0  0  0  0  0  0  0  0  0  0  0  0
   -3.8264   -8.3593    2.0886 H   0  0  0  0  0  0  0  0  0  0  0  0
   -7.6313   -6.1485    1.2790 H   0  0  0  0  0  0  0  0  0  0  0  0
   -7.3446   -3.7687    0.7393 H   0  0  0  0  0  0  0  0  0  0  0  0
   -3.1310   -4.4033    0.2322 H   0  0  0  0  0  0  0  0  0  0  0  0
   -3.4298   -6.7797    0.7804 H   0  0  0  0  0  0  0  0  0  0  0  0
   -3.0473   -2.6116   -0.1444 H   0  0  0  0  0  0  0  0  0  0  0  0
   -4.4147   -0.0684   -0.4717 H   0  0  0  0  0  0  0  0  0  0  0  0
   -0.9036    2.8761   -0.5373 H   0  0  0  0  0  0  0  0  0  0  0  0
   -0.9045    1.5045    0.5952 H   0  0  0  0  0  0  0  0  0  0  0  0
   -1.4416   -0.5239   -3.0664 H   0  0  0  0  0  0  0  0  0  0  0  0
   -0.8749    0.7431   -4.1787 H   0  0  0  0  0  0  0  0  0  0  0  0
    1.9442    0.8812   -3.5083 H   0  0  0  0  0  0  0  0  0  0  0  0
    2.1191   -0.2188   -2.1198 H   0  0  0  0  0  0  0  0  0  0  0  0
    1.2273   -0.7470   -3.5669 H   0  0  0  0  0  0  0  0  0  0  0  0
    1.7169    0.3601    0.1253 H   0  0  0  0  0  0  0  0  0  0  0  0
    2.3718    1.3080   -1.2314 H   0  0  0  0  0  0  0  0  0  0  0  0
    1.6263    2.1375    0.1558 H   0  0  0  0  0  0  0  0  0  0  0  0
   -3.6347    1.1859   -4.5564 O   0  5  0  0  0  0  0  0  0  0  0  0
  1  2  1  0  0  0  0
  1 29  1  0  0  0  0
  1 30  1  0  0  0  0
  1 31  1  0  0  0  0
  2  3  1  0  0  0  0
  2 32  1  0  0  0  0
  2 33  1  0  0  0  0
  3  4  1  0  0  0  0
  3 34  1  0  0  0  0
  3 35  1  0  0  0  0
  4  5  1  0  0  0  0
  5 10  2  0  0  0  0
  5  6  1  0  0  0  0
  6  7  2  0  0  0  0
  6 36  1  0  0  0  0
  7  8  1  0  0  0  0
  7 37  1  0  0  0  0
  8  9  2  0  0  0  0
  8 11  1  0  0  0  0
  9 10  1  0  0  0  0
  9 38  1  0  0  0  0
 10 39  1  0  0  0  0
 11 12  2  0  0  0  0
 11 13  1  0  0  0  0
 13 14  1  0  0  0  0
 13 40  1  0  0  0  0
 14 15  1  0  0  0  0
 14 41  1  0  0  0  0
 15 16  2  0  0  0  0
 15 17  1  0  0  0  0
 17 18  1  0  0  0  0
 17 23  1  0  0  0  0
 17 19  1  0  0  0  0
 19 20  1  0  0  0  0
 19 42  1  0  0  0  0
 19 43  1  0  0  0  0
 20 21  2  0  0  0  0
 20 28  1  0  0  0  0
 21 22  1  0  0  0  0
 21 27  1  0  0  0  0
 22 23  1  0  0  0  0
 22 44  1  0  0  0  0
 22 45  1  0  0  0  0
 23 24  1  0  0  0  0
 23 25  1  0  0  0  0
 25 26  2  0  0  0  0
 25 52  1  0  0  0  0
 27 46  1  0  0  0  0
 27 47  1  0  0  0  0
 27 48  1  0  0  0  0
 28 49  1  0  0  0  0
 28 50  1  0  0  0  0
 28 51  1  0  0  0  0
M  CHG  1  52  -1
M  END
$$$$
ZINC02797212
  -OEChem-08230709463D

 52 53  0     1  0  0  0  0  0999 V2000
    0.7304   16.7186    2.2042 C   0  0  0  0  0  0  0  0  0  0  0  0
   -0.3435   16.2547    1.2181 C   0  0  0  0  0  0  0  0  0  0  0  0
   -0.2556   14.7371    1.0450 C   0  0  0  0  0  0  0  0  0  0  0  0
   -1.2587   14.3038    0.1240 O   0  0  0  0  0  0  0  0  0  0  0  0
   -1.3173   12.9745   -0.1427 C   0  0  0  0  0  0  0  0  0  0  0  0
   -2.2699   12.4869   -1.0298 C   0  0  0  0  0  0  0  0  0  0  0  0
   -2.3324   11.1388   -1.3034 C   0  0  0  0  0  0  0  0  0  0  0  0
   -1.4368   10.2606   -0.6876 C   0  0  0  0  0  0  0  0  0  0  0  0
   -0.4844   10.7540    0.2080 C   0  0  0  0  0  0  0  0  0  0  0  0
   -0.4250   12.1041    0.4722 C   0  0  0  0  0  0  0  0  0  0  0  0
   -1.5007    8.8147   -0.9777 C   0  0  0  0  0  0  0  0  0  0  0  0
   -2.3333    8.3865   -1.7533 O   0  0  0  0  0  0  0  0  0  0  0  0
   -0.6360    7.9692   -0.3827 N   0  0  0  0  0  0  0  0  0  0  0  0
   -0.6966    6.5969   -0.6580 N   0  0  0  0  0  0  0  0  0  0  0  0
    0.1681    5.7514   -0.0631 C   0  0  0  0  0  0  0  0  0  0  0  0
    0.9986    6.1786    0.7107 O   0  0  0  0  0  0  0  0  0  0  0  0
    0.1029    4.2752   -0.3592 C   0  0  2  0  0  0  0  0  0  0  0  0
    0.2548    4.1052   -1.4251 H   0  0  0  0  0  0  0  0  0  0  0  0
   -1.2627    3.7263    0.0597 C   0  0  0  0  0  0  0  0  0  0  0  0
   -1.2512    2.2263    0.0149 C   0  0  0  0  0  0  0  0  0  0  0  0
   -0.1735    1.5097   -0.0073 C   0  0  0  0  0  0  0  0  0  0  0  0
    1.2149    2.0791   -0.0127 C   0  0  0  0  0  0  0  0  0  0  0  0
    1.1869    3.5407    0.4398 C   0  0  1  0  0  0  0  0  0  0  0  0
    0.9550    3.5905    1.5036 H   0  0  0  0  0  0  0  0  0  0  0  0
    2.5276    4.1775    0.1789 C   0  0  0  0  0  0  0  0  0  0  0  0
    2.6094    5.1346   -0.5541 O   0  0  0  0  0  0  0  0  0  0  0  0
   -0.3224    0.0103   -0.0356 C   0  0  0  0  0  0  0  0  0  0  0  0
   -2.5768    1.5096   -0.0001 C   0  0  0  0  0  0  0  0  0  0  0  0
    0.5732   16.2333    3.1674 H   0  0  0  0  0  0  0  0  0  0  0  0
    1.7154   16.4532    1.8201 H   0  0  0  0  0  0  0  0  0  0  0  0
    0.6678   17.7998    2.3276 H   0  0  0  0  0  0  0  0  0  0  0  0
   -0.1864   16.7400    0.2549 H   0  0  0  0  0  0  0  0  0  0  0  0
   -1.3285   16.5201    1.6022 H   0  0  0  0  0  0  0  0  0  0  0  0
   -0.4128   14.2518    2.0082 H   0  0  0  0  0  0  0  0  0  0  0  0
    0.7293   14.4717    0.6608 H   0  0  0  0  0  0  0  0  0  0  0  0
   -2.9618   13.1663   -1.5053 H   0  0  0  0  0  0  0  0  0  0  0  0
   -3.0728   10.7607   -1.9928 H   0  0  0  0  0  0  0  0  0  0  0  0
    0.2068   10.0779    0.6891 H   0  0  0  0  0  0  0  0  0  0  0  0
    0.3137   12.4868    1.1609 H   0  0  0  0  0  0  0  0  0  0  0  0
    0.0283    8.3109    0.2361 H   0  0  0  0  0  0  0  0  0  0  0  0
   -1.3608    6.2552   -1.2768 H   0  0  0  0  0  0  0  0  0  0  0  0
   -1.4906    4.0591    1.0724 H   0  0  0  0  0  0  0  0  0  0  0  0
   -2.0265    4.0981   -0.6233 H   0  0  0  0  0  0  0  0  0  0  0  0
    1.8444    1.5030    0.6654 H   0  0  0  0  0  0  0  0  0  0  0  0
    1.6245    2.0230   -1.0213 H   0  0  0  0  0  0  0  0  0  0  0  0
    0.6596   -0.4504   -0.1427 H   0  0  0  0  0  0  0  0  0  0  0  0
   -0.7825   -0.3267    0.8932 H   0  0  0  0  0  0  0  0  0  0  0  0
   -0.9521   -0.2764   -0.8779 H   0  0  0  0  0  0  0  0  0  0  0  0
   -2.4094    0.4346    0.0655 H   0  0  0  0  0  0  0  0  0  0  0  0
   -3.1762    1.8365    0.8497 H   0  0  0  0  0  0  0  0  0  0  0  0
   -3.1037    1.7395   -0.9262 H   0  0  0  0  0  0  0  0  0  0  0  0
    3.6308    3.6816    0.7608 O   0  5  0  0  0  0  0  0  0  0  0  0
  1  2  1  0  0  0  0
  1 29  1  0  0  0  0
  1 30  1  0  0  0  0
  1 31  1  0  0  0  0
  2  3  1  0  0  0  0
  2 32  1  0  0  0  0
  2 33  1  0  0  0  0
  3  4  1  0  0  0  0
  3 34  1  0  0  0  0
  3 35  1  0  0  0  0
  4  5  1  0  0  0  0
  5 10  2  0  0  0  0
  5  6  1  0  0  0  0
  6  7  2  0  0  0  0
  6 36  1  0  0  0  0
  7  8  1  0  0  0  0
  7 37  1  0  0  0  0
  8  9  2  0  0  0  0
  8 11  1  0  0  0  0
  9 10  1  0  0  0  0
  9 38  1  0  0  0  0
 10 39  1  0  0  0  0
 11 12  2  0  0  0  0
 11 13  1  0  0  0  0
 13 14  1  0  0  0  0
 13 40  1  0  0  0  0
 14 15  1  0  0  0  0
 14 41  1  0  0  0  0
 15 16  2  0  0  0  0
 15 17  1  0  0  0  0
 17 18  1  0  0  0  0
 17 23  1  0  0  0  0
 17 19  1  0  0  0  0
 19 20  1  0  0  0  0
 19 42  1  0  0  0  0
 19 43  1  0  0  0  0
 20 21  2  0  0  0  0
 20 28  1  0  0  0  0
 21 22  1  0  0  0  0
 21 27  1  0  0  0  0
 22 23  1  0  0  0  0
 22 44  1  0  0  0  0
 22 45  1  0  0  0  0
 23 24  1  0  0  0  0
 23 25  1  0  0  0  0
 25 26  2  0  0  0  0
 25 52  1  0  0  0  0
 27 46  1  0  0  0  0
 27 47  1  0  0  0  0
 27 48  1  0  0  0  0
 28 49  1  0  0  0  0
 28 50  1  0  0  0  0
 28 51  1  0  0  0  0
M  CHG  1  52  -1
M  END
$$$$
ZINC02797213
  -OEChem-08230709463D

 52 53  0     1  0  0  0  0  0999 V2000
    2.8641   -4.8592    0.6518 C   0  0  0  0  0  0  0  0  0  0  0  0
    1.5363   -4.0992    0.6390 C   0  0  0  0  0  0  0  0  0  0  0  0
    1.8101   -2.5955    0.5677 C   0  0  0  0  0  0  0  0  0  0  0  0
    0.5699   -1.8856    0.5557 O   0  0  0  0  0  0  0  0  0  0  0  0
    0.6358   -0.5315    0.4943 C   0  0  0  0  0  0  0  0  0  0  0  0
   -0.5339    0.2193    0.4794 C   0  0  0  0  0  0  0  0  0  0  0  0
   -0.4714    1.5935    0.4172 C   0  0  0  0  0  0  0  0  0  0  0  0
    0.7701    2.2330    0.3691 C   0  0  0  0  0  0  0  0  0  0  0  0
    1.9436    1.4747    0.3853 C   0  0  0  0  0  0  0  0  0  0  0  0
    1.8726    0.1009    0.4471 C   0  0  0  0  0  0  0  0  0  0  0  0
    0.8417    3.7058    0.3019 C   0  0  0  0  0  0  0  0  0  0  0  0
   -0.1805    4.3641    0.2884 O   0  0  0  0  0  0  0  0  0  0  0  0
    2.0400    4.3208    0.2556 N   0  0  0  0  0  0  0  0  0  0  0  0
    2.1079    5.7187    0.1918 N   0  0  0  0  0  0  0  0  0  0  0  0
    3.3063    6.3338    0.1455 C   0  0  0  0  0  0  0  0  0  0  0  0
    4.3258    5.6771    0.1591 O   0  0  0  0  0  0  0  0  0  0  0  0
    3.3793    7.8374    0.0769 C   0  0  1  0  0  0  0  0  0  0  0  0
    2.8771    8.1879   -0.8247 H   0  0  0  0  0  0  0  0  0  0  0  0
    2.7041    8.4420    1.3099 C   0  0  0  0  0  0  0  0  0  0  0  0
    2.9972    9.9115    1.3913 C   0  0  0  0  0  0  0  0  0  0  0  0
    3.9521   10.4976    0.7430 C   0  0  0  0  0  0  0  0  0  0  0  0
    4.8934    9.7912   -0.1880 C   0  0  0  0  0  0  0  0  0  0  0  0
    4.8473    8.2821    0.0607 C   0  0  2  0  0  0  0  0  0  0  0  0
    5.3096    8.0551    1.0213 H   0  0  0  0  0  0  0  0  0  0  0  0
    5.5819    7.5642   -1.0420 C   0  0  0  0  0  0  0  0  0  0  0  0
    4.9952    6.7764   -1.7456 O   0  0  0  0  0  0  0  0  0  0  0  0
    4.1298   11.9817    0.9356 C   0  0  0  0  0  0  0  0  0  0  0  0
    2.1259   10.7574    2.2837 C   0  0  0  0  0  0  0  0  0  0  0  0
    3.4206   -4.6340   -0.2580 H   0  0  0  0  0  0  0  0  0  0  0  0
    3.4486   -4.5548    1.5200 H   0  0  0  0  0  0  0  0  0  0  0  0
    2.6691   -5.9305    0.7026 H   0  0  0  0  0  0  0  0  0  0  0  0
    0.9799   -4.3244    1.5488 H   0  0  0  0  0  0  0  0  0  0  0  0
    0.9518   -4.4036   -0.2292 H   0  0  0  0  0  0  0  0  0  0  0  0
    2.3665   -2.3703   -0.3421 H   0  0  0  0  0  0  0  0  0  0  0  0
    2.3946   -2.2911    1.4359 H   0  0  0  0  0  0  0  0  0  0  0  0
   -1.4930   -0.2758    0.5162 H   0  0  0  0  0  0  0  0  0  0  0  0
   -1.3807    2.1760    0.4011 H   0  0  0  0  0  0  0  0  0  0  0  0
    2.9051    1.9653    0.3490 H   0  0  0  0  0  0  0  0  0  0  0  0
    2.7792   -0.4860    0.4593 H   0  0  0  0  0  0  0  0  0  0  0  0
    2.8554    3.7956    0.2664 H   0  0  0  0  0  0  0  0  0  0  0  0
    1.2925    6.2439    0.1810 H   0  0  0  0  0  0  0  0  0  0  0  0
    1.6266    8.2917    1.2419 H   0  0  0  0  0  0  0  0  0  0  0  0
    3.0817    7.9501    2.2063 H   0  0  0  0  0  0  0  0  0  0  0  0
    4.6039    9.9962   -1.2186 H   0  0  0  0  0  0  0  0  0  0  0  0
    5.9074   10.1543   -0.0206 H   0  0  0  0  0  0  0  0  0  0  0  0
    3.4406   12.3335    1.7033 H   0  0  0  0  0  0  0  0  0  0  0  0
    5.1544   12.1878    1.2451 H   0  0  0  0  0  0  0  0  0  0  0  0
    3.9228   12.4971   -0.0023 H   0  0  0  0  0  0  0  0  0  0  0  0
    1.3210   10.1458    2.6912 H   0  0  0  0  0  0  0  0  0  0  0  0
    2.7251   11.1604    3.1002 H   0  0  0  0  0  0  0  0  0  0  0  0
    1.7015   11.5780    1.7052 H   0  0  0  0  0  0  0  0  0  0  0  0
    6.8880    7.8000   -1.2426 O   0  5  0  0  0  0  0  0  0  0  0  0
  1  2  1  0  0  0  0
  1 29  1  0  0  0  0
  1 30  1  0  0  0  0
  1 31  1  0  0  0  0
  2  3  1  0  0  0  0
  2 32  1  0  0  0  0
  2 33  1  0  0  0  0
  3  4  1  0  0  0  0
  3 34  1  0  0  0  0
  3 35  1  0  0  0  0
  4  5  1  0  0  0  0
  5 10  2  0  0  0  0
  5  6  1  0  0  0  0
  6  7  2  0  0  0  0
  6 36  1  0  0  0  0
  7  8  1  0  0  0  0
  7 37  1  0  0  0  0
  8  9  2  0  0  0  0
  8 11  1  0  0  0  0
  9 10  1  0  0  0  0
  9 38  1  0  0  0  0
 10 39  1  0  0  0  0
 11 12  2  0  0  0  0
 11 13  1  0  0  0  0
 13 14  1  0  0  0  0
 13 40  1  0  0  0  0
 14 15  1  0  0  0  0
 14 41  1  0  0  0  0
 15 16  2  0  0  0  0
 15 17  1  0  0  0  0
 17 18  1  0  0  0  0
 17 23  1  0  0  0  0
 17 19  1  0  0  0  0
 19 20  1  0  0  0  0
 19 42  1  0  0  0  0
 19 43  1  0  0  0  0
 20 21  2  0  0  0  0
 20 28  1  0  0  0  0
 21 22  1  0  0  0  0
 21 27  1  0  0  0  0
 22 23  1  0  0  0  0
 22 44  1  0  0  0  0
 22 45  1  0  0  0  0
 23 24  1  0  0  0  0
 23 25  1  0  0  0  0
 25 26  2  0  0  0  0
 25 52  1  0  0  0  0
 27 46  1  0  0  0  0
 27 47  1  0  0  0  0
 27 48  1  0  0  0  0
 28 49  1  0  0  0  0
 28 50  1  0  0  0  0
 28 51  1  0  0  0  0
M  CHG  1  52  -1
M  END
$$$$
ZINC02797214
  -OEChem-08230709463D

 52 53  0     1  0  0  0  0  0999 V2000
   -0.0290    1.2300   -2.4348 C   0  0  0  0  0  0  0  0  0  0  0  0
   -0.5502    1.9414   -1.1845 C   0  0  0  0  0  0  0  0  0  0  0  0
    0.1558    1.3818    0.0522 C   0  0  0  0  0  0  0  0  0  0  0  0
   -0.3309    2.0462    1.2199 O   0  0  0  0  0  0  0  0  0  0  0  0
    0.1966    1.6649    2.4107 C   0  0  0  0  0  0  0  0  0  0  0  0
    1.1611    0.6649    2.4532 C   0  0  0  0  0  0  0  0  0  0  0  0
    1.7023    0.2785    3.6590 C   0  0  0  0  0  0  0  0  0  0  0  0
    1.2730    0.8857    4.8420 C   0  0  0  0  0  0  0  0  0  0  0  0
    0.2993    1.8869    4.7956 C   0  0  0  0  0  0  0  0  0  0  0  0
   -0.2332    2.2713    3.5853 C   0  0  0  0  0  0  0  0  0  0  0  0
    1.8460    0.4703    6.1372 C   0  0  0  0  0  0  0  0  0  0  0  0
    1.4710    0.9994    7.1656 O   0  0  0  0  0  0  0  0  0  0  0  0
    2.7850   -0.4956    6.1799 N   0  0  0  0  0  0  0  0  0  0  0  0
    3.3290   -0.8899    7.4093 N   0  0  0  0  0  0  0  0  0  0  0  0
    4.2680   -1.8558    7.4520 C   0  0  0  0  0  0  0  0  0  0  0  0
    4.6421   -2.3836    6.4261 O   0  0  0  0  0  0  0  0  0  0  0  0
    4.8531   -2.2800    8.7744 C   0  0  2  0  0  0  0  0  0  0  0  0
    4.7106   -1.4875    9.5091 H   0  0  0  0  0  0  0  0  0  0  0  0
    6.3462   -2.5699    8.6070 C   0  0  0  0  0  0  0  0  0  0  0  0
    6.5427   -3.8231    7.8051 C   0  0  0  0  0  0  0  0  0  0  0  0
    5.6186   -4.7064    7.6019 C   0  0  0  0  0  0  0  0  0  0  0  0
    4.2187   -4.5959    8.1314 C   0  0  0  0  0  0  0  0  0  0  0  0
    4.1612   -3.5611    9.2572 C   0  0  2  0  0  0  0  0  0  0  0  0
    4.6771   -3.9471   10.1364 H   0  0  0  0  0  0  0  0  0  0  0  0
    2.7253   -3.2618    9.6032 C   0  0  0  0  0  0  0  0  0  0  0  0
    2.2950   -2.1398    9.4780 O   0  0  0  0  0  0  0  0  0  0  0  0
    5.9705   -5.9217    6.7832 C   0  0  0  0  0  0  0  0  0  0  0  0
    7.9004   -4.0687    7.1991 C   0  0  0  0  0  0  0  0  0  0  0  0
    1.0450    1.3931   -2.5246 H   0  0  0  0  0  0  0  0  0  0  0  0
   -0.2288    0.1614   -2.3547 H   0  0  0  0  0  0  0  0  0  0  0  0
   -0.5319    1.6286   -3.3159 H   0  0  0  0  0  0  0  0  0  0  0  0
   -1.6241    1.7782   -1.0948 H   0  0  0  0  0  0  0  0  0  0  0  0
   -0.3504    3.0099   -1.2646 H   0  0  0  0  0  0  0  0  0  0  0  0
   -0.0440    0.3133    0.1323 H   0  0  0  0  0  0  0  0  0  0  0  0
    1.2298    1.5449   -0.0376 H   0  0  0  0  0  0  0  0  0  0  0  0
    1.4892    0.1930    1.5388 H   0  0  0  0  0  0  0  0  0  0  0  0
    2.4547   -0.4957    3.6907 H   0  0  0  0  0  0  0  0  0  0  0  0
   -0.0349    2.3588    5.7077 H   0  0  0  0  0  0  0  0  0  0  0  0
   -0.9855    3.0453    3.5485 H   0  0  0  0  0  0  0  0  0  0  0  0
    3.0843   -0.9177    5.3594 H   0  0  0  0  0  0  0  0  0  0  0  0
    3.0297   -0.4678    8.2298 H   0  0  0  0  0  0  0  0  0  0  0  0
    6.8212   -1.7341    8.0933 H   0  0  0  0  0  0  0  0  0  0  0  0
    6.8025   -2.6941    9.5891 H   0  0  0  0  0  0  0  0  0  0  0  0
    3.8999   -5.5651    8.5149 H   0  0  0  0  0  0  0  0  0  0  0  0
    3.5527   -4.2896    7.3248 H   0  0  0  0  0  0  0  0  0  0  0  0
    5.8597   -5.6905    5.7237 H   0  0  0  0  0  0  0  0  0  0  0  0
    7.0017   -6.2104    6.9862 H   0  0  0  0  0  0  0  0  0  0  0  0
    5.3045   -6.7431    7.0474 H   0  0  0  0  0  0  0  0  0  0  0  0
    7.8194   -4.0643    6.1122 H   0  0  0  0  0  0  0  0  0  0  0  0
    8.5869   -3.2833    7.5155 H   0  0  0  0  0  0  0  0  0  0  0  0
    8.2771   -5.0360    7.5315 H   0  0  0  0  0  0  0  0  0  0  0  0
    1.9245   -4.2418   10.0505 O   0  5  0  0  0  0  0  0  0  0  0  0
  1  2  1  0  0  0  0
  1 29  1  0  0  0  0
  1 30  1  0  0  0  0
  1 31  1  0  0  0  0
  2  3  1  0  0  0  0
  2 32  1  0  0  0  0
  2 33  1  0  0  0  0
  3  4  1  0  0  0  0
  3 34  1  0  0  0  0
  3 35  1  0  0  0  0
  4  5  1  0  0  0  0
  5 10  2  0  0  0  0
  5  6  1  0  0  0  0
  6  7  2  0  0  0  0
  6 36  1  0  0  0  0
  7  8  1  0  0  0  0
  7 37  1  0  0  0  0
  8  9  2  0  0  0  0
  8 11  1  0  0  0  0
  9 10  1  0  0  0  0
  9 38  1  0  0  0  0
 10 39  1  0  0  0  0
 11 12  2  0  0  0  0
 11 13  1  0  0  0  0
 13 14  1  0  0  0  0
 13 40  1  0  0  0  0
 14 15  1  0  0  0  0
 14 41  1  0  0  0  0
 15 16  2  0  0  0  0
 15 17  1  0  0  0  0
 17 18  1  0  0  0  0
 17 23  1  0  0  0  0
 17 19  1  0  0  0  0
 19 20  1  0  0  0  0
 19 42  1  0  0  0  0
 19 43  1  0  0  0  0
 20 21  2  0  0  0  0
 20 28  1  0  0  0  0
 21 22  1  0  0  0  0
 21 27  1  0  0  0  0
 22 23  1  0  0  0  0
 22 44  1  0  0  0  0
 22 45  1  0  0  0  0
 23 24  1  0  0  0  0
 23 25  1  0  0  0  0
 25 26  2  0  0  0  0
 25 52  1  0  0  0  0
 27 46  1  0  0  0  0
 27 47  1  0  0  0  0
 27 48  1  0  0  0  0
 28 49  1  0  0  0  0
 28 50  1  0  0  0  0
 28 51  1  0  0  0  0
M  CHG  1  52  -1
M  END
$$$$
ZINC02801773
  -OEChem-08230709463D

 57 59  0     1  0  0  0  0  0999 V2000
   -1.0572    1.4046   -2.3670 C   0  0  0  0  0  0  0  0  0  0  0  0
   -1.5745    1.8011   -0.9828 C   0  0  0  0  0  0  0  0  0  0  0  0
   -0.6312    1.2536    0.0902 C   0  0  0  0  0  0  0  0  0  0  0  0
   -1.1222    1.6298    1.4039 O   0  0  0  0  0  0  0  0  0  0  0  0
   -0.3996    1.2223    2.4675 C   0  0  0  0  0  0  0  0  0  0  0  0
    0.6134    0.5700    2.3006 O   0  0  0  0  0  0  0  0  0  0  0  0
   -0.8348    1.5651    3.8230 C   0  0  0  0  0  0  0  0  0  0  0  0
   -1.7294    0.6967    4.5700 C   0  0  0  0  0  0  0  0  0  0  0  0
   -2.0477    1.1281    5.8095 C   0  0  0  0  0  0  0  0  0  0  0  0
   -1.1904    2.6668    5.9877 S   0  0  0  0  0  0  0  0  0  0  0  0
   -0.4128    2.7350    4.4409 C   0  0  0  0  0  0  0  0  0  0  0  0
    0.4263    3.7186    3.9414 N   0  0  0  0  0  0  0  0  0  0  0  0
    0.7266    4.7948    4.6950 C   0  0  0  0  0  0  0  0  0  0  0  0
    0.2625    4.9027    5.8103 O   0  0  0  0  0  0  0  0  0  0  0  0
    1.6389    5.8643    4.1519 C   0  0  1  0  0  0  0  0  0  0  0  0
    1.6682    5.8030    3.0640 H   0  0  0  0  0  0  0  0  0  0  0  0
    1.1258    7.2422    4.5758 C   0  0  0  0  0  0  0  0  0  0  0  0
    1.3232    7.4359    6.0508 C   0  0  0  0  0  0  0  0  0  0  0  0
    2.1196    6.7184    6.7764 C   0  0  0  0  0  0  0  0  0  0  0  0
    2.9490    5.5857    6.2459 C   0  0  0  0  0  0  0  0  0  0  0  0
    3.0506    5.6759    4.7216 C   0  0  1  0  0  0  0  0  0  0  0  0
    3.6738    6.5264    4.4452 H   0  0  0  0  0  0  0  0  0  0  0  0
    3.6508    4.4049    4.1780 C   0  0  0  0  0  0  0  0  0  0  0  0
    3.0176    3.7169    3.4127 O   0  0  0  0  0  0  0  0  0  0  0  0
    2.2199    7.0401    8.2452 C   0  0  0  0  0  0  0  0  0  0  0  0
    0.5454    8.5337    6.7297 C   0  0  0  0  0  0  0  0  0  0  0  0
   -2.9383    0.4465    6.8021 C   0  0  0  0  0  0  0  0  0  0  0  0
   -3.7476   -0.6327    6.0626 C   0  0  0  0  0  0  0  0  0  0  0  0
   -2.7858   -1.4586    5.2034 C   0  0  0  0  0  0  0  0  0  0  0  0
   -2.2827   -0.6162    4.0298 C   0  0  0  0  0  0  0  0  0  0  0  0
   -0.0598    1.8188   -2.5145 H   0  0  0  0  0  0  0  0  0  0  0  0
   -1.0141    0.3180   -2.4413 H   0  0  0  0  0  0  0  0  0  0  0  0
   -1.7292    1.7947   -3.1315 H   0  0  0  0  0  0  0  0  0  0  0  0
   -2.5719    1.3869   -0.8353 H   0  0  0  0  0  0  0  0  0  0  0  0
   -1.6176    2.8877   -0.9085 H   0  0  0  0  0  0  0  0  0  0  0  0
   -0.5881    0.1670    0.0160 H   0  0  0  0  0  0  0  0  0  0  0  0
    0.3662    1.6677   -0.0572 H   0  0  0  0  0  0  0  0  0  0  0  0
    0.7975    3.6323    3.0494 H   0  0  0  0  0  0  0  0  0  0  0  0
    1.6725    8.0138    4.0338 H   0  0  0  0  0  0  0  0  0  0  0  0
    0.0646    7.3208    4.3399 H   0  0  0  0  0  0  0  0  0  0  0  0
    3.9484    5.6364    6.6781 H   0  0  0  0  0  0  0  0  0  0  0  0
    2.4858    4.6385    6.5221 H   0  0  0  0  0  0  0  0  0  0  0  0
    1.5173    7.8362    8.4915 H   0  0  0  0  0  0  0  0  0  0  0  0
    1.9811    6.1512    8.8290 H   0  0  0  0  0  0  0  0  0  0  0  0
    3.2339    7.3657    8.4774 H   0  0  0  0  0  0  0  0  0  0  0  0
   -0.0761    9.0462    5.9953 H   0  0  0  0  0  0  0  0  0  0  0  0
   -0.0884    8.1038    7.5053 H   0  0  0  0  0  0  0  0  0  0  0  0
    1.2380    9.2451    7.1793 H   0  0  0  0  0  0  0  0  0  0  0  0
   -2.3335   -0.0066    7.5876 H   0  0  0  0  0  0  0  0  0  0  0  0
   -3.6244    1.1722    7.2388 H   0  0  0  0  0  0  0  0  0  0  0  0
   -4.4970   -0.1642    5.4246 H   0  0  0  0  0  0  0  0  0  0  0  0
   -4.2390   -1.2817    6.7875 H   0  0  0  0  0  0  0  0  0  0  0  0
   -3.3050   -2.3377    4.8218 H   0  0  0  0  0  0  0  0  0  0  0  0
   -1.9383   -1.7754    5.8112 H   0  0  0  0  0  0  0  0  0  0  0  0
   -3.1073   -0.4118    3.3468 H   0  0  0  0  0  0  0  0  0  0  0  0
   -1.4951   -1.1558    3.5038 H   0  0  0  0  0  0  0  0  0  0  0  0
    4.8888    4.0372    4.5440 O   0  5  0  0  0  0  0  0  0  0  0  0
  1  2  1  0  0  0  0
  1 31  1  0  0  0  0
  1 32  1  0  0  0  0
  1 33  1  0  0  0  0
  2  3  1  0  0  0  0
  2 34  1  0  0  0  0
  2 35  1  0  0  0  0
  3  4  1  0  0  0  0
  3 36  1  0  0  0  0
  3 37  1  0  0  0  0
  4  5  1  0  0  0  0
  5  6  2  0  0  0  0
  5  7  1  0  0  0  0
  7 11  2  0  0  0  0
  7  8  1  0  0  0  0
  8 30  1  0  0  0  0
  8  9  2  0  0  0  0
  9 10  1  0  0  0  0
  9 27  1  0  0  0  0
 10 11  1  0  0  0  0
 11 12  1  0  0  0  0
 12 13  1  0  0  0  0
 12 38  1  0  0  0  0
 13 14  2  0  0  0  0
 13 15  1  0  0  0  0
 15 16  1  0  0  0  0
 15 21  1  0  0  0  0
 15 17  1  0  0  0  0
 17 18  1  0  0  0  0
 17 39  1  0  0  0  0
 17 40  1  0  0  0  0
 18 19  2  0  0  0  0
 18 26  1  0  0  0  0
 19 20  1  0  0  0  0
 19 25  1  0  0  0  0
 20 21  1  0  0  0  0
 20 41  1  0  0  0  0
 20 42  1  0  0  0  0
 21 22  1  0  0  0  0
 21 23  1  0  0  0  0
 23 24  2  0  0  0  0
 23 57  1  0  0  0  0
 25 43  1  0  0  0  0
 25 44  1  0  0  0  0
 25 45  1  0  0  0  0
 26 46  1  0  0  0  0
 26 47  1  0  0  0  0
 26 48  1  0  0  0  0
 27 28  1  0  0  0  0
 27 49  1  0  0  0  0
 27 50  1  0  0  0  0
 28 29  1  0  0  0  0
 28 51  1  0  0  0  0
 28 52  1  0  0  0  0
 29 30  1  0  0  0  0
 29 53  1  0  0  0  0
 29 54  1  0  0  0  0
 30 55  1  0  0  0  0
 30 56  1  0  0  0  0
M  CHG  1  57  -1
M  END
$$$$
ZINC02801774
  -OEChem-08230709463D

 57 59  0     1  0  0  0  0  0999 V2000
   -1.0474   -0.5638    8.6794 C   0  0  0  0  0  0  0  0  0  0  0  0
   -1.3951   -0.7471    7.2007 C   0  0  0  0  0  0  0  0  0  0  0  0
   -1.8545    0.5897    6.6153 C   0  0  0  0  0  0  0  0  0  0  0  0
   -2.1845    0.4157    5.2121 O   0  0  0  0  0  0  0  0  0  0  0  0
   -2.6099    1.5071    4.5432 C   0  0  0  0  0  0  0  0  0  0  0  0
   -2.7023    2.5751    5.1180 O   0  0  0  0  0  0  0  0  0  0  0  0
   -2.9605    1.4061    3.1250 C   0  0  0  0  0  0  0  0  0  0  0  0
   -1.9677    1.6221    2.0856 C   0  0  0  0  0  0  0  0  0  0  0  0
   -2.4235    1.4991    0.8204 C   0  0  0  0  0  0  0  0  0  0  0  0
   -4.1401    1.1024    0.9937 S   0  0  0  0  0  0  0  0  0  0  0  0
   -4.2539    1.1001    2.7226 C   0  0  0  0  0  0  0  0  0  0  0  0
   -5.3656    0.8519    3.5123 N   0  0  0  0  0  0  0  0  0  0  0  0
   -6.5511    0.5687    2.9371 C   0  0  0  0  0  0  0  0  0  0  0  0
   -6.6451    0.5309    1.7285 O   0  0  0  0  0  0  0  0  0  0  0  0
   -7.7599    0.2989    3.7956 C   0  0  2  0  0  0  0  0  0  0  0  0
   -7.9670    1.1679    4.4201 H   0  0  0  0  0  0  0  0  0  0  0  0
   -7.5014   -0.9243    4.6780 C   0  0  0  0  0  0  0  0  0  0  0  0
   -8.7753   -1.3635    5.3387 C   0  0  0  0  0  0  0  0  0  0  0  0
   -9.9559   -1.0030    4.9493 C   0  0  0  0  0  0  0  0  0  0  0  0
  -10.2155   -0.0875    3.7889 C   0  0  0  0  0  0  0  0  0  0  0  0
   -8.9718    0.0053    2.9023 C   0  0  1  0  0  0  0  0  0  0  0  0
   -8.8221   -0.9401    2.3809 H   0  0  0  0  0  0  0  0  0  0  0  0
   -9.1419    1.1161    1.8982 C   0  0  0  0  0  0  0  0  0  0  0  0
   -8.3745    2.0494    1.8939 O   0  0  0  0  0  0  0  0  0  0  0  0
  -11.1437   -1.5354    5.7088 C   0  0  0  0  0  0  0  0  0  0  0  0
   -8.6736   -2.2808    6.5300 C   0  0  0  0  0  0  0  0  0  0  0  0
   -1.6368    1.6653   -0.4432 C   0  0  0  0  0  0  0  0  0  0  0  0
   -0.3139    2.3658   -0.1007 C   0  0  0  0  0  0  0  0  0  0  0  0
    0.3143    1.6690    1.1097 C   0  0  0  0  0  0  0  0  0  0  0  0
   -0.5109    1.9638    2.3636 C   0  0  0  0  0  0  0  0  0  0  0  0
   -0.2468    0.1695    8.7762 H   0  0  0  0  0  0  0  0  0  0  0  0
   -1.9275   -0.2142    9.2189 H   0  0  0  0  0  0  0  0  0  0  0  0
   -0.7200   -1.5162    9.0964 H   0  0  0  0  0  0  0  0  0  0  0  0
   -2.1956   -1.4805    7.1039 H   0  0  0  0  0  0  0  0  0  0  0  0
   -0.5149   -1.0967    6.6611 H   0  0  0  0  0  0  0  0  0  0  0  0
   -1.0540    1.3231    6.7121 H   0  0  0  0  0  0  0  0  0  0  0  0
   -2.7347    0.9393    7.1549 H   0  0  0  0  0  0  0  0  0  0  0  0
   -5.2905    0.8822    4.4789 H   0  0  0  0  0  0  0  0  0  0  0  0
   -7.1139   -1.7373    4.0641 H   0  0  0  0  0  0  0  0  0  0  0  0
   -6.7671   -0.6698    5.4423 H   0  0  0  0  0  0  0  0  0  0  0  0
  -10.4685    0.9052    4.1614 H   0  0  0  0  0  0  0  0  0  0  0  0
  -11.0484   -0.4768    3.2034 H   0  0  0  0  0  0  0  0  0  0  0  0
  -11.4120   -2.5182    5.3211 H   0  0  0  0  0  0  0  0  0  0  0  0
  -10.8916   -1.6183    6.7660 H   0  0  0  0  0  0  0  0  0  0  0  0
  -11.9866   -0.8549    5.5885 H   0  0  0  0  0  0  0  0  0  0  0  0
   -9.2735   -3.1736    6.3534 H   0  0  0  0  0  0  0  0  0  0  0  0
   -7.6326   -2.5667    6.6807 H   0  0  0  0  0  0  0  0  0  0  0  0
   -9.0411   -1.7658    7.4176 H   0  0  0  0  0  0  0  0  0  0  0  0
   -2.2017    2.2729   -1.1502 H   0  0  0  0  0  0  0  0  0  0  0  0
   -1.4324    0.6877   -0.8797 H   0  0  0  0  0  0  0  0  0  0  0  0
   -0.5056    3.4118    0.1387 H   0  0  0  0  0  0  0  0  0  0  0  0
    0.3643    2.3020   -0.9516 H   0  0  0  0  0  0  0  0  0  0  0  0
    0.3378    0.5932    0.9363 H   0  0  0  0  0  0  0  0  0  0  0  0
    1.3311    2.0353    1.2510 H   0  0  0  0  0  0  0  0  0  0  0  0
   -0.1466    1.3562    3.1919 H   0  0  0  0  0  0  0  0  0  0  0  0
   -0.4252    3.0203    2.6174 H   0  0  0  0  0  0  0  0  0  0  0  0
  -10.1459    1.0688    1.0086 O   0  5  0  0  0  0  0  0  0  0  0  0
  1  2  1  0  0  0  0
  1 31  1  0  0  0  0
  1 32  1  0  0  0  0
  1 33  1  0  0  0  0
  2  3  1  0  0  0  0
  2 34  1  0  0  0  0
  2 35  1  0  0  0  0
  3  4  1  0  0  0  0
  3 36  1  0  0  0  0
  3 37  1  0  0  0  0
  4  5  1  0  0  0  0
  5  6  2  0  0  0  0
  5  7  1  0  0  0  0
  7 11  2  0  0  0  0
  7  8  1  0  0  0  0
  8 30  1  0  0  0  0
  8  9  2  0  0  0  0
  9 10  1  0  0  0  0
  9 27  1  0  0  0  0
 10 11  1  0  0  0  0
 11 12  1  0  0  0  0
 12 13  1  0  0  0  0
 12 38  1  0  0  0  0
 13 14  2  0  0  0  0
 13 15  1  0  0  0  0
 15 16  1  0  0  0  0
 15 21  1  0  0  0  0
 15 17  1  0  0  0  0
 17 18  1  0  0  0  0
 17 39  1  0  0  0  0
 17 40  1  0  0  0  0
 18 19  2  0  0  0  0
 18 26  1  0  0  0  0
 19 20  1  0  0  0  0
 19 25  1  0  0  0  0
 20 21  1  0  0  0  0
 20 41  1  0  0  0  0
 20 42  1  0  0  0  0
 21 22  1  0  0  0  0
 21 23  1  0  0  0  0
 23 24  2  0  0  0  0
 23 57  1  0  0  0  0
 25 43  1  0  0  0  0
 25 44  1  0  0  0  0
 25 45  1  0  0  0  0
 26 46  1  0  0  0  0
 26 47  1  0  0  0  0
 26 48  1  0  0  0  0
 27 28  1  0  0  0  0
 27 49  1  0  0  0  0
 27 50  1  0  0  0  0
 28 29  1  0  0  0  0
 28 51  1  0  0  0  0
 28 52  1  0  0  0  0
 29 30  1  0  0  0  0
 29 53  1  0  0  0  0
 29 54  1  0  0  0  0
 30 55  1  0  0  0  0
 30 56  1  0  0  0  0
M  CHG  1  57  -1
M  END
$$$$
ZINC02801775
  -OEChem-08230709463D

 57 59  0     1  0  0  0  0  0999 V2000
    4.3335   -6.4616   -3.5025 C   0  0  0  0  0  0  0  0  0  0  0  0
    3.2921   -5.3648   -3.2718 C   0  0  0  0  0  0  0  0  0  0  0  0
    3.2463   -5.0097   -1.7843 C   0  0  0  0  0  0  0  0  0  0  0  0
    2.2579   -3.9687   -1.5654 O   0  0  0  0  0  0  0  0  0  0  0  0
    2.0922   -3.5385   -0.2979 C   0  0  0  0  0  0  0  0  0  0  0  0
    2.7563   -4.0209    0.5999 O   0  0  0  0  0  0  0  0  0  0  0  0
    1.1128   -2.4907   -0.0025 C   0  0  0  0  0  0  0  0  0  0  0  0
    1.4809   -1.0849   -0.0303 C   0  0  0  0  0  0  0  0  0  0  0  0
    0.4830   -0.2231    0.2614 C   0  0  0  0  0  0  0  0  0  0  0  0
   -0.9266   -1.2493    0.5685 S   0  0  0  0  0  0  0  0  0  0  0  0
   -0.2028   -2.8028    0.3144 C   0  0  0  0  0  0  0  0  0  0  0  0
   -0.7934   -4.0535    0.4052 N   0  0  0  0  0  0  0  0  0  0  0  0
   -2.0974   -4.1610    0.7285 C   0  0  0  0  0  0  0  0  0  0  0  0
   -2.7540   -3.1635    0.9400 O   0  0  0  0  0  0  0  0  0  0  0  0
   -2.7395   -5.5208    0.8273 C   0  0  1  0  0  0  0  0  0  0  0  0
   -2.6719   -6.0286   -0.1348 H   0  0  0  0  0  0  0  0  0  0  0  0
   -2.0265   -6.3498    1.8978 C   0  0  0  0  0  0  0  0  0  0  0  0
   -2.8099   -7.5950    2.1941 C   0  0  0  0  0  0  0  0  0  0  0  0
   -4.0526   -7.7636    1.8732 C   0  0  0  0  0  0  0  0  0  0  0  0
   -4.8808   -6.7412    1.1516 C   0  0  0  0  0  0  0  0  0  0  0  0
   -4.2111   -5.3678    1.2324 C   0  0  2  0  0  0  0  0  0  0  0  0
   -4.2728   -4.9899    2.2529 H   0  0  0  0  0  0  0  0  0  0  0  0
   -4.8989   -4.4126    0.2914 C   0  0  0  0  0  0  0  0  0  0  0  0
   -4.2792   -3.9036   -0.6124 O   0  0  0  0  0  0  0  0  0  0  0  0
   -4.7085   -9.0676    2.2481 C   0  0  0  0  0  0  0  0  0  0  0  0
   -2.1063   -8.7189    2.9102 C   0  0  0  0  0  0  0  0  0  0  0  0
    0.5658    1.2715    0.3104 C   0  0  0  0  0  0  0  0  0  0  0  0
    2.0476    1.6729    0.3459 C   0  0  0  0  0  0  0  0  0  0  0  0
    2.7949    0.8970   -0.7427 C   0  0  0  0  0  0  0  0  0  0  0  0
    2.8807   -0.5819   -0.3612 C   0  0  0  0  0  0  0  0  0  0  0  0
    4.3662   -6.7146   -4.5622 H   0  0  0  0  0  0  0  0  0  0  0  0
    5.3131   -6.1054   -3.1837 H   0  0  0  0  0  0  0  0  0  0  0  0
    4.0633   -7.3463   -2.9259 H   0  0  0  0  0  0  0  0  0  0  0  0
    2.3125   -5.7210   -3.5907 H   0  0  0  0  0  0  0  0  0  0  0  0
    3.5623   -4.4801   -3.8484 H   0  0  0  0  0  0  0  0  0  0  0  0
    4.2259   -4.6534   -1.4655 H   0  0  0  0  0  0  0  0  0  0  0  0
    2.9761   -5.8943   -1.2078 H   0  0  0  0  0  0  0  0  0  0  0  0
   -0.2683   -4.8513    0.2361 H   0  0  0  0  0  0  0  0  0  0  0  0
   -1.0338   -6.6239    1.5408 H   0  0  0  0  0  0  0  0  0  0  0  0
   -1.9324   -5.7592    2.8090 H   0  0  0  0  0  0  0  0  0  0  0  0
   -4.9834   -7.0319    0.1061 H   0  0  0  0  0  0  0  0  0  0  0  0
   -5.8682   -6.6872    1.6101 H   0  0  0  0  0  0  0  0  0  0  0  0
   -4.0171   -9.6642    2.8432 H   0  0  0  0  0  0  0  0  0  0  0  0
   -5.6088   -8.8675    2.8292 H   0  0  0  0  0  0  0  0  0  0  0  0
   -4.9741   -9.6141    1.3432 H   0  0  0  0  0  0  0  0  0  0  0  0
   -1.0532   -8.4669    3.0356 H   0  0  0  0  0  0  0  0  0  0  0  0
   -2.5630   -8.8688    3.8884 H   0  0  0  0  0  0  0  0  0  0  0  0
   -2.1936   -9.6340    2.3244 H   0  0  0  0  0  0  0  0  0  0  0  0
    0.0918    1.6947   -0.5752 H   0  0  0  0  0  0  0  0  0  0  0  0
    0.0646    1.6378    1.2063 H   0  0  0  0  0  0  0  0  0  0  0  0
    2.1407    2.7431    0.1610 H   0  0  0  0  0  0  0  0  0  0  0  0
    2.4685    1.4307    1.3218 H   0  0  0  0  0  0  0  0  0  0  0  0
    3.8011    1.3021   -0.8501 H   0  0  0  0  0  0  0  0  0  0  0  0
    2.2628    0.9967   -1.6887 H   0  0  0  0  0  0  0  0  0  0  0  0
    3.5260   -0.6979    0.5095 H   0  0  0  0  0  0  0  0  0  0  0  0
    3.2866   -1.1537   -1.1957 H   0  0  0  0  0  0  0  0  0  0  0  0
   -6.1999   -4.1271    0.4573 O   0  5  0  0  0  0  0  0  0  0  0  0
  1  2  1  0  0  0  0
  1 31  1  0  0  0  0
  1 32  1  0  0  0  0
  1 33  1  0  0  0  0
  2  3  1  0  0  0  0
  2 34  1  0  0  0  0
  2 35  1  0  0  0  0
  3  4  1  0  0  0  0
  3 36  1  0  0  0  0
  3 37  1  0  0  0  0
  4  5  1  0  0  0  0
  5  6  2  0  0  0  0
  5  7  1  0  0  0  0
  7 11  2  0  0  0  0
  7  8  1  0  0  0  0
  8 30  1  0  0  0  0
  8  9  2  0  0  0  0
  9 10  1  0  0  0  0
  9 27  1  0  0  0  0
 10 11  1  0  0  0  0
 11 12  1  0  0  0  0
 12 13  1  0  0  0  0
 12 38  1  0  0  0  0
 13 14  2  0  0  0  0
 13 15  1  0  0  0  0
 15 16  1  0  0  0  0
 15 21  1  0  0  0  0
 15 17  1  0  0  0  0
 17 18  1  0  0  0  0
 17 39  1  0  0  0  0
 17 40  1  0  0  0  0
 18 19  2  0  0  0  0
 18 26  1  0  0  0  0
 19 20  1  0  0  0  0
 19 25  1  0  0  0  0
 20 21  1  0  0  0  0
 20 41  1  0  0  0  0
 20 42  1  0  0  0  0
 21 22  1  0  0  0  0
 21 23  1  0  0  0  0
 23 24  2  0  0  0  0
 23 57  1  0  0  0  0
 25 43  1  0  0  0  0
 25 44  1  0  0  0  0
 25 45  1  0  0  0  0
 26 46  1  0  0  0  0
 26 47  1  0  0  0  0
 26 48  1  0  0  0  0
 27 28  1  0  0  0  0
 27 49  1  0  0  0  0
 27 50  1  0  0  0  0
 28 29  1  0  0  0  0
 28 51  1  0  0  0  0
 28 52  1  0  0  0  0
 29 30  1  0  0  0  0
 29 53  1  0  0  0  0
 29 54  1  0  0  0  0
 30 55  1  0  0  0  0
 30 56  1  0  0  0  0
M  CHG  1  57  -1
M  END
$$$$
ZINC02801776
  -OEChem-08230709463D

 57 59  0     1  0  0  0  0  0999 V2000
   -5.7202    9.2066    4.0804 C   0  0  0  0  0  0  0  0  0  0  0  0
   -4.3328    8.6506    4.4074 C   0  0  0  0  0  0  0  0  0  0  0  0
   -4.3906    7.1221    4.4399 C   0  0  0  0  0  0  0  0  0  0  0  0
   -3.0739    6.5945    4.7503 O   0  0  0  0  0  0  0  0  0  0  0  0
   -2.9521    5.2528    4.8174 C   0  0  0  0  0  0  0  0  0  0  0  0
   -3.9207    4.5436    4.6216 O   0  0  0  0  0  0  0  0  0  0  0  0
   -1.6537    4.6501    5.1259 C   0  0  0  0  0  0  0  0  0  0  0  0
   -1.2564    4.3756    6.4968 C   0  0  0  0  0  0  0  0  0  0  0  0
   -0.0343    3.8194    6.6411 C   0  0  0  0  0  0  0  0  0  0  0  0
    0.5845    3.6507    4.9910 S   0  0  0  0  0  0  0  0  0  0  0  0
   -0.7555    4.3196    4.1197 C   0  0  0  0  0  0  0  0  0  0  0  0
   -0.8986    4.4802    2.7504 N   0  0  0  0  0  0  0  0  0  0  0  0
    0.0910    4.0965    1.9198 C   0  0  0  0  0  0  0  0  0  0  0  0
    1.1067    3.6106    2.3704 O   0  0  0  0  0  0  0  0  0  0  0  0
   -0.0646    4.2712    0.4310 C   0  0  2  0  0  0  0  0  0  0  0  0
   -1.1217    4.3484    0.1766 H   0  0  0  0  0  0  0  0  0  0  0  0
    0.5530    3.0739   -0.2947 C   0  0  0  0  0  0  0  0  0  0  0  0
    2.0483    3.1095   -0.1736 C   0  0  0  0  0  0  0  0  0  0  0  0
    2.7229    4.1576    0.1757 C   0  0  0  0  0  0  0  0  0  0  0  0
    2.1040    5.4839    0.5073 C   0  0  0  0  0  0  0  0  0  0  0  0
    0.6681    5.5417   -0.0184 C   0  0  2  0  0  0  0  0  0  0  0  0
    0.6783    5.5930   -1.1072 H   0  0  0  0  0  0  0  0  0  0  0  0
   -0.0288    6.7540    0.5435 C   0  0  0  0  0  0  0  0  0  0  0  0
   -1.0225    6.6212    1.2178 O   0  0  0  0  0  0  0  0  0  0  0  0
    4.2236    4.0404    0.2478 C   0  0  0  0  0  0  0  0  0  0  0  0
    2.8117    1.8450   -0.4723 C   0  0  0  0  0  0  0  0  0  0  0  0
    0.6352    3.4301    7.9230 C   0  0  0  0  0  0  0  0  0  0  0  0
   -0.1162    4.0984    9.0836 C   0  0  0  0  0  0  0  0  0  0  0  0
   -1.6183    3.8643    8.8987 C   0  0  0  0  0  0  0  0  0  0  0  0
   -2.1289    4.6786    7.7087 C   0  0  0  0  0  0  0  0  0  0  0  0
   -6.0407    8.8344    3.1073 H   0  0  0  0  0  0  0  0  0  0  0  0
   -6.4293    8.8860    4.8436 H   0  0  0  0  0  0  0  0  0  0  0  0
   -5.6790   10.2956    4.0573 H   0  0  0  0  0  0  0  0  0  0  0  0
   -4.0123    9.0229    5.3805 H   0  0  0  0  0  0  0  0  0  0  0  0
   -3.6237    8.9713    3.6442 H   0  0  0  0  0  0  0  0  0  0  0  0
   -4.7111    6.7499    3.4668 H   0  0  0  0  0  0  0  0  0  0  0  0
   -5.0997    6.8014    5.2031 H   0  0  0  0  0  0  0  0  0  0  0  0
   -1.7110    4.8688    2.3900 H   0  0  0  0  0  0  0  0  0  0  0  0
    0.1745    2.1508    0.1443 H   0  0  0  0  0  0  0  0  0  0  0  0
    0.2802    3.1107   -1.3494 H   0  0  0  0  0  0  0  0  0  0  0  0
    2.0985    5.6197    1.5888 H   0  0  0  0  0  0  0  0  0  0  0  0
    2.6878    6.2805    0.0461 H   0  0  0  0  0  0  0  0  0  0  0  0
    4.6540    5.0165    0.4712 H   0  0  0  0  0  0  0  0  0  0  0  0
    4.4956    3.3350    1.0331 H   0  0  0  0  0  0  0  0  0  0  0  0
    4.6066    3.6847   -0.7087 H   0  0  0  0  0  0  0  0  0  0  0  0
    3.8682    1.9978   -0.2521 H   0  0  0  0  0  0  0  0  0  0  0  0
    2.4257    1.0333    0.1443 H   0  0  0  0  0  0  0  0  0  0  0  0
    2.6934    1.5893   -1.5253 H   0  0  0  0  0  0  0  0  0  0  0  0
    1.6714    3.7680    7.9135 H   0  0  0  0  0  0  0  0  0  0  0  0
    0.6033    2.3469    8.0403 H   0  0  0  0  0  0  0  0  0  0  0  0
    0.0895    5.1688    9.0837 H   0  0  0  0  0  0  0  0  0  0  0  0
    0.2081    3.6619   10.0283 H   0  0  0  0  0  0  0  0  0  0  0  0
   -2.1464    4.1719    9.8013 H   0  0  0  0  0  0  0  0  0  0  0  0
   -1.7987    2.8049    8.7168 H   0  0  0  0  0  0  0  0  0  0  0  0
   -2.0732    5.7417    7.9425 H   0  0  0  0  0  0  0  0  0  0  0  0
   -3.1614    4.4032    7.4936 H   0  0  0  0  0  0  0  0  0  0  0  0
    0.4546    7.9813    0.2949 O   0  5  0  0  0  0  0  0  0  0  0  0
  1  2  1  0  0  0  0
  1 31  1  0  0  0  0
  1 32  1  0  0  0  0
  1 33  1  0  0  0  0
  2  3  1  0  0  0  0
  2 34  1  0  0  0  0
  2 35  1  0  0  0  0
  3  4  1  0  0  0  0
  3 36  1  0  0  0  0
  3 37  1  0  0  0  0
  4  5  1  0  0  0  0
  5  6  2  0  0  0  0
  5  7  1  0  0  0  0
  7 11  2  0  0  0  0
  7  8  1  0  0  0  0
  8 30  1  0  0  0  0
  8  9  2  0  0  0  0
  9 10  1  0  0  0  0
  9 27  1  0  0  0  0
 10 11  1  0  0  0  0
 11 12  1  0  0  0  0
 12 13  1  0  0  0  0
 12 38  1  0  0  0  0
 13 14  2  0  0  0  0
 13 15  1  0  0  0  0
 15 16  1  0  0  0  0
 15 21  1  0  0  0  0
 15 17  1  0  0  0  0
 17 18  1  0  0  0  0
 17 39  1  0  0  0  0
 17 40  1  0  0  0  0
 18 19  2  0  0  0  0
 18 26  1  0  0  0  0
 19 20  1  0  0  0  0
 19 25  1  0  0  0  0
 20 21  1  0  0  0  0
 20 41  1  0  0  0  0
 20 42  1  0  0  0  0
 21 22  1  0  0  0  0
 21 23  1  0  0  0  0
 23 24  2  0  0  0  0
 23 57  1  0  0  0  0
 25 43  1  0  0  0  0
 25 44  1  0  0  0  0
 25 45  1  0  0  0  0
 26 46  1  0  0  0  0
 26 47  1  0  0  0  0
 26 48  1  0  0  0  0
 27 28  1  0  0  0  0
 27 49  1  0  0  0  0
 27 50  1  0  0  0  0
 28 29  1  0  0  0  0
 28 51  1  0  0  0  0
 28 52  1  0  0  0  0
 29 30  1  0  0  0  0
 29 53  1  0  0  0  0
 29 54  1  0  0  0  0
 30 55  1  0  0  0  0
 30 56  1  0  0  0  0
M  CHG  1  57  -1
M  END
$$$$
ZINC02805920
  -OEChem-08230709463D

 55 56  0     1  0  0  0  0  0999 V2000
   -4.0376  -12.4921    2.0621 C   0  0  0  0  0  0  0  0  0  0  0  0
   -3.6595  -11.0530    1.7058 C   0  0  0  0  0  0  0  0  0  0  0  0
   -4.9155  -10.1793    1.7119 C   0  0  0  0  0  0  0  0  0  0  0  0
   -4.5375   -8.7402    1.3556 C   0  0  0  0  0  0  0  0  0  0  0  0
   -5.7106   -7.9242    1.3613 O   0  0  0  0  0  0  0  0  0  0  0  0
   -5.5485   -6.6102    1.0634 C   0  0  0  0  0  0  0  0  0  0  0  0
   -6.6491   -5.7613    1.0513 C   0  0  0  0  0  0  0  0  0  0  0  0
   -6.4889   -4.4274    0.7491 C   0  0  0  0  0  0  0  0  0  0  0  0
   -5.2176   -3.9275    0.4548 C   0  0  0  0  0  0  0  0  0  0  0  0
   -4.1145   -4.7851    0.4632 C   0  0  0  0  0  0  0  0  0  0  0  0
   -4.2824   -6.1168    0.7707 C   0  0  0  0  0  0  0  0  0  0  0  0
   -5.0415   -2.4985    0.1298 C   0  0  0  0  0  0  0  0  0  0  0  0
   -6.0032   -1.7547    0.1180 O   0  0  0  0  0  0  0  0  0  0  0  0
   -3.8146   -2.0182   -0.1539 N   0  0  0  0  0  0  0  0  0  0  0  0
   -3.6474   -0.6618   -0.4623 N   0  0  0  0  0  0  0  0  0  0  0  0
   -2.4205   -0.1815   -0.7460 C   0  0  0  0  0  0  0  0  0  0  0  0
   -1.4612   -0.9234   -0.7342 O   0  0  0  0  0  0  0  0  0  0  0  0
   -2.2407    1.2775   -1.0777 C   0  0  1  0  0  0  0  0  0  0  0  0
   -3.0826    1.8510   -0.6900 H   0  0  0  0  0  0  0  0  0  0  0  0
   -0.9395    1.7897   -0.4563 C   0  0  0  0  0  0  0  0  0  0  0  0
    0.2415    1.1984   -1.1688 C   0  0  0  0  0  0  0  0  0  0  0  0
    0.1786    0.6433   -2.3335 C   0  0  0  0  0  0  0  0  0  0  0  0
   -1.0817    0.5026   -3.1358 C   0  0  0  0  0  0  0  0  0  0  0  0
   -2.1539    1.4534   -2.5991 C   0  0  1  0  0  0  0  0  0  0  0  0
   -1.8838    2.4822   -2.8373 H   0  0  0  0  0  0  0  0  0  0  0  0
   -3.4843    1.1213   -3.2241 C   0  0  0  0  0  0  0  0  0  0  0  0
   -4.4156    0.7969   -2.5261 O   0  0  0  0  0  0  0  0  0  0  0  0
    1.4557    0.1023   -2.9229 C   0  0  0  0  0  0  0  0  0  0  0  0
    1.5818    1.2549   -0.4823 C   0  0  0  0  0  0  0  0  0  0  0  0
   -3.1428  -13.1145    2.0578 H   0  0  0  0  0  0  0  0  0  0  0  0
   -4.4906  -12.5140    3.0532 H   0  0  0  0  0  0  0  0  0  0  0  0
   -4.7487  -12.8730    1.3291 H   0  0  0  0  0  0  0  0  0  0  0  0
   -3.2065  -11.0311    0.7147 H   0  0  0  0  0  0  0  0  0  0  0  0
   -2.9484  -10.6720    2.4389 H   0  0  0  0  0  0  0  0  0  0  0  0
   -5.3686  -10.2012    2.7030 H   0  0  0  0  0  0  0  0  0  0  0  0
   -5.6266  -10.5602    0.9789 H   0  0  0  0  0  0  0  0  0  0  0  0
   -4.0844   -8.7183    0.3645 H   0  0  0  0  0  0  0  0  0  0  0  0
   -3.8264   -8.3593    2.0886 H   0  0  0  0  0  0  0  0  0  0  0  0
   -7.6313   -6.1485    1.2790 H   0  0  0  0  0  0  0  0  0  0  0  0
   -7.3446   -3.7687    0.7393 H   0  0  0  0  0  0  0  0  0  0  0  0
   -3.1310   -4.4033    0.2322 H   0  0  0  0  0  0  0  0  0  0  0  0
   -3.4298   -6.7797    0.7804 H   0  0  0  0  0  0  0  0  0  0  0  0
   -3.0473   -2.6116   -0.1444 H   0  0  0  0  0  0  0  0  0  0  0  0
   -4.4147   -0.0684   -0.4717 H   0  0  0  0  0  0  0  0  0  0  0  0
   -0.9036    2.8761   -0.5373 H   0  0  0  0  0  0  0  0  0  0  0  0
   -0.9045    1.5045    0.5952 H   0  0  0  0  0  0  0  0  0  0  0  0
   -1.4416   -0.5239   -3.0664 H   0  0  0  0  0  0  0  0  0  0  0  0
   -0.8749    0.7431   -4.1787 H   0  0  0  0  0  0  0  0  0  0  0  0
    1.9442    0.8812   -3.5083 H   0  0  0  0  0  0  0  0  0  0  0  0
    2.1191   -0.2188   -2.1198 H   0  0  0  0  0  0  0  0  0  0  0  0
    1.2273   -0.7470   -3.5669 H   0  0  0  0  0  0  0  0  0  0  0  0
    1.7169    0.3601    0.1253 H   0  0  0  0  0  0  0  0  0  0  0  0
    2.3718    1.3080   -1.2314 H   0  0  0  0  0  0  0  0  0  0  0  0
    1.6263    2.1375    0.1558 H   0  0  0  0  0  0  0  0  0  0  0  0
   -3.6347    1.1859   -4.5564 O   0  5  0  0  0  0  0  0  0  0  0  0
  1  2  1  0  0  0  0
  1 30  1  0  0  0  0
  1 31  1  0  0  0  0
  1 32  1  0  0  0  0
  2  3  1  0  0  0  0
  2 33  1  0  0  0  0
  2 34  1  0  0  0  0
  3  4  1  0  0  0  0
  3 35  1  0  0  0  0
  3 36  1  0  0  0  0
  4  5  1  0  0  0  0
  4 37  1  0  0  0  0
  4 38  1  0  0  0  0
  5  6  1  0  0  0  0
  6 11  2  0  0  0  0
  6  7  1  0  0  0  0
  7  8  2  0  0  0  0
  7 39  1  0  0  0  0
  8  9  1  0  0  0  0
  8 40  1  0  0  0  0
  9 10  2  0  0  0  0
  9 12  1  0  0  0  0
 10 11  1  0  0  0  0
 10 41  1  0  0  0  0
 11 42  1  0  0  0  0
 12 13  2  0  0  0  0
 12 14  1  0  0  0  0
 14 15  1  0  0  0  0
 14 43  1  0  0  0  0
 15 16  1  0  0  0  0
 15 44  1  0  0  0  0
 16 17  2  0  0  0  0
 16 18  1  0  0  0  0
 18 19  1  0  0  0  0
 18 24  1  0  0  0  0
 18 20  1  0  0  0  0
 20 21  1  0  0  0  0
 20 45  1  0  0  0  0
 20 46  1  0  0  0  0
 21 22  2  0  0  0  0
 21 29  1  0  0  0  0
 22 23  1  0  0  0  0
 22 28  1  0  0  0  0
 23 24  1  0  0  0  0
 23 47  1  0  0  0  0
 23 48  1  0  0  0  0
 24 25  1  0  0  0  0
 24 26  1  0  0  0  0
 26 27  2  0  0  0  0
 26 55  1  0  0  0  0
 28 49  1  0  0  0  0
 28 50  1  0  0  0  0
 28 51  1  0  0  0  0
 29 52  1  0  0  0  0
 29 53  1  0  0  0  0
 29 54  1  0  0  0  0
M  CHG  1  55  -1
M  END
$$$$
ZINC02805921
  -OEChem-08230709463D

 55 56  0     1  0  0  0  0  0999 V2000
    0.6425   18.2362    2.3774 C   0  0  0  0  0  0  0  0  0  0  0  0
    0.7304   16.7186    2.2042 C   0  0  0  0  0  0  0  0  0  0  0  0
   -0.3435   16.2547    1.2181 C   0  0  0  0  0  0  0  0  0  0  0  0
   -0.2556   14.7371    1.0450 C   0  0  0  0  0  0  0  0  0  0  0  0
   -1.2587   14.3038    0.1240 O   0  0  0  0  0  0  0  0  0  0  0  0
   -1.3173   12.9745   -0.1427 C   0  0  0  0  0  0  0  0  0  0  0  0
   -2.2699   12.4869   -1.0298 C   0  0  0  0  0  0  0  0  0  0  0  0
   -2.3324   11.1388   -1.3034 C   0  0  0  0  0  0  0  0  0  0  0  0
   -1.4368   10.2606   -0.6876 C   0  0  0  0  0  0  0  0  0  0  0  0
   -0.4844   10.7540    0.2080 C   0  0  0  0  0  0  0  0  0  0  0  0
   -0.4250   12.1041    0.4722 C   0  0  0  0  0  0  0  0  0  0  0  0
   -1.5007    8.8147   -0.9777 C   0  0  0  0  0  0  0  0  0  0  0  0
   -2.3333    8.3865   -1.7533 O   0  0  0  0  0  0  0  0  0  0  0  0
   -0.6360    7.9692   -0.3827 N   0  0  0  0  0  0  0  0  0  0  0  0
   -0.6966    6.5969   -0.6580 N   0  0  0  0  0  0  0  0  0  0  0  0
    0.1681    5.7514   -0.0631 C   0  0  0  0  0  0  0  0  0  0  0  0
    0.9986    6.1786    0.7107 O   0  0  0  0  0  0  0  0  0  0  0  0
    0.1029    4.2752   -0.3592 C   0  0  2  0  0  0  0  0  0  0  0  0
    0.2548    4.1052   -1.4251 H   0  0  0  0  0  0  0  0  0  0  0  0
   -1.2627    3.7263    0.0597 C   0  0  0  0  0  0  0  0  0  0  0  0
   -1.2512    2.2263    0.0149 C   0  0  0  0  0  0  0  0  0  0  0  0
   -0.1735    1.5097   -0.0073 C   0  0  0  0  0  0  0  0  0  0  0  0
    1.2149    2.0791   -0.0127 C   0  0  0  0  0  0  0  0  0  0  0  0
    1.1869    3.5407    0.4398 C   0  0  1  0  0  0  0  0  0  0  0  0
    0.9550    3.5905    1.5036 H   0  0  0  0  0  0  0  0  0  0  0  0
    2.5276    4.1775    0.1789 C   0  0  0  0  0  0  0  0  0  0  0  0
    2.6094    5.1346   -0.5541 O   0  0  0  0  0  0  0  0  0  0  0  0
   -0.3224    0.0103   -0.0356 C   0  0  0  0  0  0  0  0  0  0  0  0
   -2.5768    1.5096   -0.0001 C   0  0  0  0  0  0  0  0  0  0  0  0
    0.7997   18.7215    1.4141 H   0  0  0  0  0  0  0  0  0  0  0  0
   -0.3425   18.5016    2.7615 H   0  0  0  0  0  0  0  0  0  0  0  0
    1.4076   18.5667    3.0799 H   0  0  0  0  0  0  0  0  0  0  0  0
    0.5732   16.2333    3.1674 H   0  0  0  0  0  0  0  0  0  0  0  0
    1.7154   16.4532    1.8201 H   0  0  0  0  0  0  0  0  0  0  0  0
   -0.1864   16.7400    0.2549 H   0  0  0  0  0  0  0  0  0  0  0  0
   -1.3285   16.5201    1.6022 H   0  0  0  0  0  0  0  0  0  0  0  0
   -0.4128   14.2518    2.0082 H   0  0  0  0  0  0  0  0  0  0  0  0
    0.7293   14.4717    0.6608 H   0  0  0  0  0  0  0  0  0  0  0  0
   -2.9618   13.1663   -1.5053 H   0  0  0  0  0  0  0  0  0  0  0  0
   -3.0728   10.7607   -1.9928 H   0  0  0  0  0  0  0  0  0  0  0  0
    0.2068   10.0779    0.6891 H   0  0  0  0  0  0  0  0  0  0  0  0
    0.3137   12.4868    1.1609 H   0  0  0  0  0  0  0  0  0  0  0  0
    0.0283    8.3109    0.2361 H   0  0  0  0  0  0  0  0  0  0  0  0
   -1.3608    6.2552   -1.2768 H   0  0  0  0  0  0  0  0  0  0  0  0
   -1.4906    4.0591    1.0724 H   0  0  0  0  0  0  0  0  0  0  0  0
   -2.0265    4.0981   -0.6233 H   0  0  0  0  0  0  0  0  0  0  0  0
    1.8444    1.5030    0.6654 H   0  0  0  0  0  0  0  0  0  0  0  0
    1.6245    2.0230   -1.0213 H   0  0  0  0  0  0  0  0  0  0  0  0
    0.6596   -0.4504   -0.1427 H   0  0  0  0  0  0  0  0  0  0  0  0
   -0.7825   -0.3267    0.8932 H   0  0  0  0  0  0  0  0  0  0  0  0
   -0.9521   -0.2764   -0.8779 H   0  0  0  0  0  0  0  0  0  0  0  0
   -2.4094    0.4346    0.0655 H   0  0  0  0  0  0  0  0  0  0  0  0
   -3.1762    1.8365    0.8497 H   0  0  0  0  0  0  0  0  0  0  0  0
   -3.1037    1.7395   -0.9262 H   0  0  0  0  0  0  0  0  0  0  0  0
    3.6308    3.6816    0.7608 O   0  5  0  0  0  0  0  0  0  0  0  0
  1  2  1  0  0  0  0
  1 30  1  0  0  0  0
  1 31  1  0  0  0  0
  1 32  1  0  0  0  0
  2  3  1  0  0  0  0
  2 33  1  0  0  0  0
  2 34  1  0  0  0  0
  3  4  1  0  0  0  0
  3 35  1  0  0  0  0
  3 36  1  0  0  0  0
  4  5  1  0  0  0  0
  4 37  1  0  0  0  0
  4 38  1  0  0  0  0
  5  6  1  0  0  0  0
  6 11  2  0  0  0  0
  6  7  1  0  0  0  0
  7  8  2  0  0  0  0
  7 39  1  0  0  0  0
  8  9  1  0  0  0  0
  8 40  1  0  0  0  0
  9 10  2  0  0  0  0
  9 12  1  0  0  0  0
 10 11  1  0  0  0  0
 10 41  1  0  0  0  0
 11 42  1  0  0  0  0
 12 13  2  0  0  0  0
 12 14  1  0  0  0  0
 14 15  1  0  0  0  0
 14 43  1  0  0  0  0
 15 16  1  0  0  0  0
 15 44  1  0  0  0  0
 16 17  2  0  0  0  0
 16 18  1  0  0  0  0
 18 19  1  0  0  0  0
 18 24  1  0  0  0  0
 18 20  1  0  0  0  0
 20 21  1  0  0  0  0
 20 45  1  0  0  0  0
 20 46  1  0  0  0  0
 21 22  2  0  0  0  0
 21 29  1  0  0  0  0
 22 23  1  0  0  0  0
 22 28  1  0  0  0  0
 23 24  1  0  0  0  0
 23 47  1  0  0  0  0
 23 48  1  0  0  0  0
 24 25  1  0  0  0  0
 24 26  1  0  0  0  0
 26 27  2  0  0  0  0
 26 55  1  0  0  0  0
 28 49  1  0  0  0  0
 28 50  1  0  0  0  0
 28 51  1  0  0  0  0
 29 52  1  0  0  0  0
 29 53  1  0  0  0  0
 29 54  1  0  0  0  0
M  CHG  1  55  -1
M  END
$$$$
ZINC02805922
  -OEChem-08230709463D

 55 56  0     1  0  0  0  0  0999 V2000
    2.5904   -6.3629    0.7231 C   0  0  0  0  0  0  0  0  0  0  0  0
    2.8641   -4.8592    0.6518 C   0  0  0  0  0  0  0  0  0  0  0  0
    1.5363   -4.0992    0.6390 C   0  0  0  0  0  0  0  0  0  0  0  0
    1.8101   -2.5955    0.5677 C   0  0  0  0  0  0  0  0  0  0  0  0
    0.5699   -1.8856    0.5557 O   0  0  0  0  0  0  0  0  0  0  0  0
    0.6358   -0.5315    0.4943 C   0  0  0  0  0  0  0  0  0  0  0  0
   -0.5339    0.2193    0.4794 C   0  0  0  0  0  0  0  0  0  0  0  0
   -0.4714    1.5935    0.4172 C   0  0  0  0  0  0  0  0  0  0  0  0
    0.7701    2.2330    0.3691 C   0  0  0  0  0  0  0  0  0  0  0  0
    1.9436    1.4747    0.3853 C   0  0  0  0  0  0  0  0  0  0  0  0
    1.8726    0.1009    0.4471 C   0  0  0  0  0  0  0  0  0  0  0  0
    0.8417    3.7058    0.3019 C   0  0  0  0  0  0  0  0  0  0  0  0
   -0.1805    4.3641    0.2884 O   0  0  0  0  0  0  0  0  0  0  0  0
    2.0400    4.3208    0.2556 N   0  0  0  0  0  0  0  0  0  0  0  0
    2.1079    5.7187    0.1918 N   0  0  0  0  0  0  0  0  0  0  0  0
    3.3063    6.3338    0.1455 C   0  0  0  0  0  0  0  0  0  0  0  0
    4.3258    5.6771    0.1591 O   0  0  0  0  0  0  0  0  0  0  0  0
    3.3793    7.8374    0.0769 C   0  0  1  0  0  0  0  0  0  0  0  0
    2.8771    8.1879   -0.8247 H   0  0  0  0  0  0  0  0  0  0  0  0
    2.7041    8.4420    1.3099 C   0  0  0  0  0  0  0  0  0  0  0  0
    2.9972    9.9115    1.3913 C   0  0  0  0  0  0  0  0  0  0  0  0
    3.9521   10.4976    0.7430 C   0  0  0  0  0  0  0  0  0  0  0  0
    4.8934    9.7912   -0.1880 C   0  0  0  0  0  0  0  0  0  0  0  0
    4.8473    8.2821    0.0607 C   0  0  2  0  0  0  0  0  0  0  0  0
    5.3096    8.0551    1.0213 H   0  0  0  0  0  0  0  0  0  0  0  0
    5.5819    7.5642   -1.0420 C   0  0  0  0  0  0  0  0  0  0  0  0
    4.9952    6.7764   -1.7456 O   0  0  0  0  0  0  0  0  0  0  0  0
    4.1298   11.9817    0.9356 C   0  0  0  0  0  0  0  0  0  0  0  0
    2.1259   10.7574    2.2837 C   0  0  0  0  0  0  0  0  0  0  0  0
    2.0339   -6.5881    1.6329 H   0  0  0  0  0  0  0  0  0  0  0  0
    2.0058   -6.6673   -0.1451 H   0  0  0  0  0  0  0  0  0  0  0  0
    3.5363   -6.9044    0.7323 H   0  0  0  0  0  0  0  0  0  0  0  0
    3.4206   -4.6340   -0.2580 H   0  0  0  0  0  0  0  0  0  0  0  0
    3.4486   -4.5548    1.5200 H   0  0  0  0  0  0  0  0  0  0  0  0
    0.9799   -4.3244    1.5488 H   0  0  0  0  0  0  0  0  0  0  0  0
    0.9518   -4.4036   -0.2292 H   0  0  0  0  0  0  0  0  0  0  0  0
    2.3665   -2.3703   -0.3421 H   0  0  0  0  0  0  0  0  0  0  0  0
    2.3946   -2.2911    1.4359 H   0  0  0  0  0  0  0  0  0  0  0  0
   -1.4930   -0.2758    0.5162 H   0  0  0  0  0  0  0  0  0  0  0  0
   -1.3807    2.1760    0.4011 H   0  0  0  0  0  0  0  0  0  0  0  0
    2.9051    1.9653    0.3490 H   0  0  0  0  0  0  0  0  0  0  0  0
    2.7792   -0.4860    0.4593 H   0  0  0  0  0  0  0  0  0  0  0  0
    2.8554    3.7956    0.2664 H   0  0  0  0  0  0  0  0  0  0  0  0
    1.2925    6.2439    0.1810 H   0  0  0  0  0  0  0  0  0  0  0  0
    1.6266    8.2917    1.2419 H   0  0  0  0  0  0  0  0  0  0  0  0
    3.0817    7.9501    2.2063 H   0  0  0  0  0  0  0  0  0  0  0  0
    4.6039    9.9962   -1.2186 H   0  0  0  0  0  0  0  0  0  0  0  0
    5.9074   10.1543   -0.0206 H   0  0  0  0  0  0  0  0  0  0  0  0
    3.4406   12.3335    1.7033 H   0  0  0  0  0  0  0  0  0  0  0  0
    5.1544   12.1878    1.2451 H   0  0  0  0  0  0  0  0  0  0  0  0
    3.9228   12.4971   -0.0023 H   0  0  0  0  0  0  0  0  0  0  0  0
    1.3210   10.1458    2.6912 H   0  0  0  0  0  0  0  0  0  0  0  0
    2.7251   11.1604    3.1002 H   0  0  0  0  0  0  0  0  0  0  0  0
    1.7015   11.5780    1.7052 H   0  0  0  0  0  0  0  0  0  0  0  0
    6.8880    7.8000   -1.2426 O   0  5  0  0  0  0  0  0  0  0  0  0
  1  2  1  0  0  0  0
  1 30  1  0  0  0  0
  1 31  1  0  0  0  0
  1 32  1  0  0  0  0
  2  3  1  0  0  0  0
  2 33  1  0  0  0  0
  2 34  1  0  0  0  0
  3  4  1  0  0  0  0
  3 35  1  0  0  0  0
  3 36  1  0  0  0  0
  4  5  1  0  0  0  0
  4 37  1  0  0  0  0
  4 38  1  0  0  0  0
  5  6  1  0  0  0  0
  6 11  2  0  0  0  0
  6  7  1  0  0  0  0
  7  8  2  0  0  0  0
  7 39  1  0  0  0  0
  8  9  1  0  0  0  0
  8 40  1  0  0  0  0
  9 10  2  0  0  0  0
  9 12  1  0  0  0  0
 10 11  1  0  0  0  0
 10 41  1  0  0  0  0
 11 42  1  0  0  0  0
 12 13  2  0  0  0  0
 12 14  1  0  0  0  0
 14 15  1  0  0  0  0
 14 43  1  0  0  0  0
 15 16  1  0  0  0  0
 15 44  1  0  0  0  0
 16 17  2  0  0  0  0
 16 18  1  0  0  0  0
 18 19  1  0  0  0  0
 18 24  1  0  0  0  0
 18 20  1  0  0  0  0
 20 21  1  0  0  0  0
 20 45  1  0  0  0  0
 20 46  1  0  0  0  0
 21 22  2  0  0  0  0
 21 29  1  0  0  0  0
 22 23  1  0  0  0  0
 22 28  1  0  0  0  0
 23 24  1  0  0  0  0
 23 47  1  0  0  0  0
 23 48  1  0  0  0  0
 24 25  1  0  0  0  0
 24 26  1  0  0  0  0
 26 27  2  0  0  0  0
 26 55  1  0  0  0  0
 28 49  1  0  0  0  0
 28 50  1  0  0  0  0
 28 51  1  0  0  0  0
 29 52  1  0  0  0  0
 29 53  1  0  0  0  0
 29 54  1  0  0  0  0
M  CHG  1  55  -1
M  END
$$$$
ZINC02805923
  -OEChem-08230709463D

 55 56  0     1  0  0  0  0  0999 V2000
   -0.7350    1.7895   -3.6715 C   0  0  0  0  0  0  0  0  0  0  0  0
   -0.0290    1.2300   -2.4348 C   0  0  0  0  0  0  0  0  0  0  0  0
   -0.5502    1.9414   -1.1845 C   0  0  0  0  0  0  0  0  0  0  0  0
    0.1558    1.3818    0.0522 C   0  0  0  0  0  0  0  0  0  0  0  0
   -0.3309    2.0462    1.2199 O   0  0  0  0  0  0  0  0  0  0  0  0
    0.1966    1.6649    2.4107 C   0  0  0  0  0  0  0  0  0  0  0  0
    1.1611    0.6649    2.4532 C   0  0  0  0  0  0  0  0  0  0  0  0
    1.7023    0.2785    3.6590 C   0  0  0  0  0  0  0  0  0  0  0  0
    1.2730    0.8857    4.8420 C   0  0  0  0  0  0  0  0  0  0  0  0
    0.2993    1.8869    4.7956 C   0  0  0  0  0  0  0  0  0  0  0  0
   -0.2332    2.2713    3.5853 C   0  0  0  0  0  0  0  0  0  0  0  0
    1.8460    0.4703    6.1372 C   0  0  0  0  0  0  0  0  0  0  0  0
    1.4710    0.9994    7.1656 O   0  0  0  0  0  0  0  0  0  0  0  0
    2.7850   -0.4956    6.1799 N   0  0  0  0  0  0  0  0  0  0  0  0
    3.3290   -0.8899    7.4093 N   0  0  0  0  0  0  0  0  0  0  0  0
    4.2680   -1.8558    7.4520 C   0  0  0  0  0  0  0  0  0  0  0  0
    4.6421   -2.3836    6.4261 O   0  0  0  0  0  0  0  0  0  0  0  0
    4.8531   -2.2800    8.7744 C   0  0  2  0  0  0  0  0  0  0  0  0
    4.7106   -1.4875    9.5091 H   0  0  0  0  0  0  0  0  0  0  0  0
    6.3462   -2.5699    8.6070 C   0  0  0  0  0  0  0  0  0  0  0  0
    6.5427   -3.8231    7.8051 C   0  0  0  0  0  0  0  0  0  0  0  0
    5.6186   -4.7064    7.6019 C   0  0  0  0  0  0  0  0  0  0  0  0
    4.2187   -4.5959    8.1314 C   0  0  0  0  0  0  0  0  0  0  0  0
    4.1612   -3.5611    9.2572 C   0  0  2  0  0  0  0  0  0  0  0  0
    4.6771   -3.9471   10.1364 H   0  0  0  0  0  0  0  0  0  0  0  0
    2.7253   -3.2618    9.6032 C   0  0  0  0  0  0  0  0  0  0  0  0
    2.2950   -2.1398    9.4780 O   0  0  0  0  0  0  0  0  0  0  0  0
    5.9705   -5.9217    6.7832 C   0  0  0  0  0  0  0  0  0  0  0  0
    7.9004   -4.0687    7.1991 C   0  0  0  0  0  0  0  0  0  0  0  0
   -0.3637    1.2827   -4.5623 H   0  0  0  0  0  0  0  0  0  0  0  0
   -1.8089    1.6264   -3.5818 H   0  0  0  0  0  0  0  0  0  0  0  0
   -0.5352    2.8580   -3.7516 H   0  0  0  0  0  0  0  0  0  0  0  0
    1.0450    1.3931   -2.5246 H   0  0  0  0  0  0  0  0  0  0  0  0
   -0.2288    0.1614   -2.3547 H   0  0  0  0  0  0  0  0  0  0  0  0
   -1.6241    1.7782   -1.0948 H   0  0  0  0  0  0  0  0  0  0  0  0
   -0.3504    3.0099   -1.2646 H   0  0  0  0  0  0  0  0  0  0  0  0
   -0.0440    0.3133    0.1323 H   0  0  0  0  0  0  0  0  0  0  0  0
    1.2298    1.5449   -0.0376 H   0  0  0  0  0  0  0  0  0  0  0  0
    1.4892    0.1930    1.5388 H   0  0  0  0  0  0  0  0  0  0  0  0
    2.4547   -0.4957    3.6907 H   0  0  0  0  0  0  0  0  0  0  0  0
   -0.0349    2.3588    5.7077 H   0  0  0  0  0  0  0  0  0  0  0  0
   -0.9855    3.0453    3.5485 H   0  0  0  0  0  0  0  0  0  0  0  0
    3.0843   -0.9177    5.3594 H   0  0  0  0  0  0  0  0  0  0  0  0
    3.0297   -0.4678    8.2298 H   0  0  0  0  0  0  0  0  0  0  0  0
    6.8212   -1.7341    8.0933 H   0  0  0  0  0  0  0  0  0  0  0  0
    6.8025   -2.6941    9.5891 H   0  0  0  0  0  0  0  0  0  0  0  0
    3.8999   -5.5651    8.5149 H   0  0  0  0  0  0  0  0  0  0  0  0
    3.5527   -4.2896    7.3248 H   0  0  0  0  0  0  0  0  0  0  0  0
    5.8597   -5.6905    5.7237 H   0  0  0  0  0  0  0  0  0  0  0  0
    7.0017   -6.2104    6.9862 H   0  0  0  0  0  0  0  0  0  0  0  0
    5.3045   -6.7431    7.0474 H   0  0  0  0  0  0  0  0  0  0  0  0
    7.8194   -4.0643    6.1122 H   0  0  0  0  0  0  0  0  0  0  0  0
    8.5869   -3.2833    7.5155 H   0  0  0  0  0  0  0  0  0  0  0  0
    8.2771   -5.0360    7.5315 H   0  0  0  0  0  0  0  0  0  0  0  0
    1.9245   -4.2418   10.0505 O   0  5  0  0  0  0  0  0  0  0  0  0
  1  2  1  0  0  0  0
  1 30  1  0  0  0  0
  1 31  1  0  0  0  0
  1 32  1  0  0  0  0
  2  3  1  0  0  0  0
  2 33  1  0  0  0  0
  2 34  1  0  0  0  0
  3  4  1  0  0  0  0
  3 35  1  0  0  0  0
  3 36  1  0  0  0  0
  4  5  1  0  0  0  0
  4 37  1  0  0  0  0
  4 38  1  0  0  0  0
  5  6  1  0  0  0  0
  6 11  2  0  0  0  0
  6  7  1  0  0  0  0
  7  8  2  0  0  0  0
  7 39  1  0  0  0  0
  8  9  1  0  0  0  0
  8 40  1  0  0  0  0
  9 10  2  0  0  0  0
  9 12  1  0  0  0  0
 10 11  1  0  0  0  0
 10 41  1  0  0  0  0
 11 42  1  0  0  0  0
 12 13  2  0  0  0  0
 12 14  1  0  0  0  0
 14 15  1  0  0  0  0
 14 43  1  0  0  0  0
 15 16  1  0  0  0  0
 15 44  1  0  0  0  0
 16 17  2  0  0  0  0
 16 18  1  0  0  0  0
 18 19  1  0  0  0  0
 18 24  1  0  0  0  0
 18 20  1  0  0  0  0
 20 21  1  0  0  0  0
 20 45  1  0  0  0  0
 20 46  1  0  0  0  0
 21 22  2  0  0  0  0
 21 29  1  0  0  0  0
 22 23  1  0  0  0  0
 22 28  1  0  0  0  0
 23 24  1  0  0  0  0
 23 47  1  0  0  0  0
 23 48  1  0  0  0  0
 24 25  1  0  0  0  0
 24 26  1  0  0  0  0
 26 27  2  0  0  0  0
 26 55  1  0  0  0  0
 28 49  1  0  0  0  0
 28 50  1  0  0  0  0
 28 51  1  0  0  0  0
 29 52  1  0  0  0  0
 29 53  1  0  0  0  0
 29 54  1  0  0  0  0
M  CHG  1  55  -1
M  END
$$$$
ZINC02805968
  -OEChem-08230709463D

 54 55  0     1  0  0  0  0  0999 V2000
    1.5818    1.2549   -0.4823 C   0  0  0  0  0  0  0  0  0  0  0  0
    0.2415    1.1984   -1.1688 C   0  0  0  0  0  0  0  0  0  0  0  0
    0.1786    0.6433   -2.3335 C   0  0  0  0  0  0  0  0  0  0  0  0
   -1.0817    0.5026   -3.1358 C   0  0  0  0  0  0  0  0  0  0  0  0
   -2.1539    1.4534   -2.5991 C   0  0  2  0  0  0  0  0  0  0  0  0
   -1.8838    2.4822   -2.8373 H   0  0  0  0  0  0  0  0  0  0  0  0
   -2.2407    1.2775   -1.0777 C   0  0  2  0  0  0  0  0  0  0  0  0
   -3.0826    1.8510   -0.6900 H   0  0  0  0  0  0  0  0  0  0  0  0
   -0.9395    1.7897   -0.4563 C   0  0  0  0  0  0  0  0  0  0  0  0
   -2.4205   -0.1815   -0.7460 C   0  0  0  0  0  0  0  0  0  0  0  0
   -1.4612   -0.9234   -0.7342 O   0  0  0  0  0  0  0  0  0  0  0  0
   -3.6474   -0.6618   -0.4623 N   0  0  0  0  0  0  0  0  0  0  0  0
   -3.8146   -2.0182   -0.1539 N   0  0  0  0  0  0  0  0  0  0  0  0
   -5.0415   -2.4985    0.1298 C   0  0  0  0  0  0  0  0  0  0  0  0
   -6.0030   -1.7549    0.1180 O   0  0  0  0  0  0  0  0  0  0  0  0
   -5.2179   -3.9299    0.4553 C   0  0  0  0  0  0  0  0  0  0  0  0
   -4.1168   -4.7876    0.4641 C   0  0  0  0  0  0  0  0  0  0  0  0
   -4.2876   -6.1210    0.7739 C   0  0  0  0  0  0  0  0  0  0  0  0
   -5.5484   -6.6108    1.0651 C   0  0  0  0  0  0  0  0  0  0  0  0
   -6.6449   -5.7671    1.0525 C   0  0  0  0  0  0  0  0  0  0  0  0
   -6.4872   -4.4305    0.7495 C   0  0  0  0  0  0  0  0  0  0  0  0
   -5.7282   -8.0698    1.3969 C   0  0  0  0  0  0  0  0  0  0  0  0
   -6.6782   -8.7101    0.3828 C   0  0  0  0  0  0  0  0  0  0  0  0
   -4.3722   -8.7762    1.3420 C   0  0  0  0  0  0  0  0  0  0  0  0
   -6.3168   -8.2043    2.8027 C   0  0  0  0  0  0  0  0  0  0  0  0
   -3.4843    1.1213   -3.2241 C   0  0  0  0  0  0  0  0  0  0  0  0
   -4.4156    0.7969   -2.5261 O   0  0  0  0  0  0  0  0  0  0  0  0
    1.4557    0.1023   -2.9229 C   0  0  0  0  0  0  0  0  0  0  0  0
    1.7169    0.3601    0.1253 H   0  0  0  0  0  0  0  0  0  0  0  0
    2.3718    1.3080   -1.2314 H   0  0  0  0  0  0  0  0  0  0  0  0
    1.6263    2.1375    0.1558 H   0  0  0  0  0  0  0  0  0  0  0  0
   -1.4416   -0.5239   -3.0664 H   0  0  0  0  0  0  0  0  0  0  0  0
   -0.8749    0.7431   -4.1787 H   0  0  0  0  0  0  0  0  0  0  0  0
   -0.9036    2.8761   -0.5373 H   0  0  0  0  0  0  0  0  0  0  0  0
   -0.9045    1.5045    0.5952 H   0  0  0  0  0  0  0  0  0  0  0  0
   -4.4147   -0.0684   -0.4717 H   0  0  0  0  0  0  0  0  0  0  0  0
   -3.0473   -2.6116   -0.1444 H   0  0  0  0  0  0  0  0  0  0  0  0
   -3.1328   -4.4074    0.2327 H   0  0  0  0  0  0  0  0  0  0  0  0
   -3.4358   -6.7849    0.7851 H   0  0  0  0  0  0  0  0  0  0  0  0
   -7.6265   -6.1558    1.2800 H   0  0  0  0  0  0  0  0  0  0  0  0
   -7.3439   -3.7730    0.7397 H   0  0  0  0  0  0  0  0  0  0  0  0
   -6.2589   -8.6143   -0.6187 H   0  0  0  0  0  0  0  0  0  0  0  0
   -6.8083   -9.7654    0.6228 H   0  0  0  0  0  0  0  0  0  0  0  0
   -7.6443   -8.2068    0.4219 H   0  0  0  0  0  0  0  0  0  0  0  0
   -3.6954   -8.3200    2.0645 H   0  0  0  0  0  0  0  0  0  0  0  0
   -4.5022   -9.8314    1.5820 H   0  0  0  0  0  0  0  0  0  0  0  0
   -3.9528   -8.6804    0.3405 H   0  0  0  0  0  0  0  0  0  0  0  0
   -7.2829   -7.7010    2.8418 H   0  0  0  0  0  0  0  0  0  0  0  0
   -6.4469   -9.2595    3.0427 H   0  0  0  0  0  0  0  0  0  0  0  0
   -5.6400   -7.7481    3.5252 H   0  0  0  0  0  0  0  0  0  0  0  0
    1.9442    0.8812   -3.5083 H   0  0  0  0  0  0  0  0  0  0  0  0
    2.1191   -0.2188   -2.1198 H   0  0  0  0  0  0  0  0  0  0  0  0
    1.2273   -0.7470   -3.5669 H   0  0  0  0  0  0  0  0  0  0  0  0
   -3.6347    1.1859   -4.5564 O   0  5  0  0  0  0  0  0  0  0  0  0
  1  2  1  0  0  0  0
  1 29  1  0  0  0  0
  1 30  1  0  0  0  0
  1 31  1  0  0  0  0
  2  9  1  0  0  0  0
  2  3  2  0  0  0  0
  3  4  1  0  0  0  0
  3 28  1  0  0  0  0
  4  5  1  0  0  0  0
  4 32  1  0  0  0  0
  4 33  1  0  0  0  0
  5  6  1  0  0  0  0
  5  7  1  0  0  0  0
  5 26  1  0  0  0  0
  7  8  1  0  0  0  0
  7  9  1  0  0  0  0
  7 10  1  0  0  0  0
  9 34  1  0  0  0  0
  9 35  1  0  0  0  0
 10 11  2  0  0  0  0
 10 12  1  0  0  0  0
 12 13  1  0  0  0  0
 12 36  1  0  0  0  0
 13 14  1  0  0  0  0
 13 37  1  0  0  0  0
 14 15  2  0  0  0  0
 14 16  1  0  0  0  0
 16 21  2  0  0  0  0
 16 17  1  0  0  0  0
 17 18  2  0  0  0  0
 17 38  1  0  0  0  0
 18 19  1  0  0  0  0
 18 39  1  0  0  0  0
 19 20  2  0  0  0  0
 19 22  1  0  0  0  0
 20 21  1  0  0  0  0
 20 40  1  0  0  0  0
 21 41  1  0  0  0  0
 22 23  1  0  0  0  0
 22 24  1  0  0  0  0
 22 25  1  0  0  0  0
 23 42  1  0  0  0  0
 23 43  1  0  0  0  0
 23 44  1  0  0  0  0
 24 45  1  0  0  0  0
 24 46  1  0  0  0  0
 24 47  1  0  0  0  0
 25 48  1  0  0  0  0
 25 49  1  0  0  0  0
 25 50  1  0  0  0  0
 26 27  2  0  0  0  0
 26 54  1  0  0  0  0
 28 51  1  0  0  0  0
 28 52  1  0  0  0  0
 28 53  1  0  0  0  0
M  CHG  1  54  -1
M  END
$$$$
ZINC02805969
  -OEChem-08230709463D

 54 55  0     1  0  0  0  0  0999 V2000
   -2.5768    1.5096   -0.0001 C   0  0  0  0  0  0  0  0  0  0  0  0
   -1.2512    2.2263    0.0149 C   0  0  0  0  0  0  0  0  0  0  0  0
   -0.1735    1.5097   -0.0073 C   0  0  0  0  0  0  0  0  0  0  0  0
    1.2149    2.0791   -0.0127 C   0  0  0  0  0  0  0  0  0  0  0  0
    1.1869    3.5407    0.4398 C   0  0  2  0  0  0  0  0  0  0  0  0
    0.9550    3.5905    1.5036 H   0  0  0  0  0  0  0  0  0  0  0  0
    0.1029    4.2752   -0.3592 C   0  0  1  0  0  0  0  0  0  0  0  0
    0.2548    4.1052   -1.4251 H   0  0  0  0  0  0  0  0  0  0  0  0
   -1.2627    3.7263    0.0597 C   0  0  0  0  0  0  0  0  0  0  0  0
    0.1681    5.7514   -0.0631 C   0  0  0  0  0  0  0  0  0  0  0  0
    0.9986    6.1786    0.7107 O   0  0  0  0  0  0  0  0  0  0  0  0
   -0.6966    6.5969   -0.6580 N   0  0  0  0  0  0  0  0  0  0  0  0
   -0.6360    7.9692   -0.3827 N   0  0  0  0  0  0  0  0  0  0  0  0
   -1.5007    8.8147   -0.9777 C   0  0  0  0  0  0  0  0  0  0  0  0
   -2.3331    8.3866   -1.7531 O   0  0  0  0  0  0  0  0  0  0  0  0
   -1.4367   10.2629   -0.6871 C   0  0  0  0  0  0  0  0  0  0  0  0
   -0.4858   10.7571    0.2072 C   0  0  0  0  0  0  0  0  0  0  0  0
   -0.4281   12.1102    0.4698 C   0  0  0  0  0  0  0  0  0  0  0  0
   -1.3169   12.9755   -0.1430 C   0  0  0  0  0  0  0  0  0  0  0  0
   -2.2657   12.4915   -1.0261 C   0  0  0  0  0  0  0  0  0  0  0  0
   -2.3307   11.1412   -1.3016 C   0  0  0  0  0  0  0  0  0  0  0  0
   -1.2517   14.4517    0.1531 C   0  0  0  0  0  0  0  0  0  0  0  0
   -2.5835   14.9115    0.7495 C   0  0  0  0  0  0  0  0  0  0  0  0
   -0.1250   14.7222    1.1523 C   0  0  0  0  0  0  0  0  0  0  0  0
   -0.9804   15.2201   -1.1418 C   0  0  0  0  0  0  0  0  0  0  0  0
    2.5276    4.1775    0.1789 C   0  0  0  0  0  0  0  0  0  0  0  0
    2.6094    5.1346   -0.5541 O   0  0  0  0  0  0  0  0  0  0  0  0
   -0.3224    0.0103   -0.0356 C   0  0  0  0  0  0  0  0  0  0  0  0
   -2.4094    0.4346    0.0655 H   0  0  0  0  0  0  0  0  0  0  0  0
   -3.1762    1.8365    0.8497 H   0  0  0  0  0  0  0  0  0  0  0  0
   -3.1037    1.7395   -0.9262 H   0  0  0  0  0  0  0  0  0  0  0  0
    1.8444    1.5030    0.6654 H   0  0  0  0  0  0  0  0  0  0  0  0
    1.6245    2.0230   -1.0213 H   0  0  0  0  0  0  0  0  0  0  0  0
   -1.4906    4.0591    1.0724 H   0  0  0  0  0  0  0  0  0  0  0  0
   -2.0265    4.0981   -0.6233 H   0  0  0  0  0  0  0  0  0  0  0  0
   -1.3608    6.2552   -1.2768 H   0  0  0  0  0  0  0  0  0  0  0  0
    0.0283    8.3109    0.2361 H   0  0  0  0  0  0  0  0  0  0  0  0
    0.2056   10.0821    0.6896 H   0  0  0  0  0  0  0  0  0  0  0  0
    0.3099   12.4944    1.1585 H   0  0  0  0  0  0  0  0  0  0  0  0
   -2.9566   13.1722   -1.5012 H   0  0  0  0  0  0  0  0  0  0  0  0
   -3.0720   10.7646   -1.9908 H   0  0  0  0  0  0  0  0  0  0  0  0
   -2.7768   14.3641    1.6721 H   0  0  0  0  0  0  0  0  0  0  0  0
   -2.5364   15.9792    0.9637 H   0  0  0  0  0  0  0  0  0  0  0  0
   -3.3862   14.7188    0.0377 H   0  0  0  0  0  0  0  0  0  0  0  0
    0.8238   14.3946    0.7274 H   0  0  0  0  0  0  0  0  0  0  0  0
   -0.0778   15.7899    1.3664 H   0  0  0  0  0  0  0  0  0  0  0  0
   -0.3183   14.1747    2.0748 H   0  0  0  0  0  0  0  0  0  0  0  0
   -1.7831   15.0274   -1.8536 H   0  0  0  0  0  0  0  0  0  0  0  0
   -0.9333   16.2878   -0.9276 H   0  0  0  0  0  0  0  0  0  0  0  0
   -0.0316   14.8925   -1.5667 H   0  0  0  0  0  0  0  0  0  0  0  0
    0.6596   -0.4504   -0.1427 H   0  0  0  0  0  0  0  0  0  0  0  0
   -0.7825   -0.3267    0.8932 H   0  0  0  0  0  0  0  0  0  0  0  0
   -0.9521   -0.2764   -0.8779 H   0  0  0  0  0  0  0  0  0  0  0  0
    3.6308    3.6816    0.7608 O   0  5  0  0  0  0  0  0  0  0  0  0
  1  2  1  0  0  0  0
  1 29  1  0  0  0  0
  1 30  1  0  0  0  0
  1 31  1  0  0  0  0
  2  9  1  0  0  0  0
  2  3  2  0  0  0  0
  3  4  1  0  0  0  0
  3 28  1  0  0  0  0
  4  5  1  0  0  0  0
  4 32  1  0  0  0  0
  4 33  1  0  0  0  0
  5  6  1  0  0  0  0
  5  7  1  0  0  0  0
  5 26  1  0  0  0  0
  7  8  1  0  0  0  0
  7  9  1  0  0  0  0
  7 10  1  0  0  0  0
  9 34  1  0  0  0  0
  9 35  1  0  0  0  0
 10 11  2  0  0  0  0
 10 12  1  0  0  0  0
 12 13  1  0  0  0  0
 12 36  1  0  0  0  0
 13 14  1  0  0  0  0
 13 37  1  0  0  0  0
 14 15  2  0  0  0  0
 14 16  1  0  0  0  0
 16 21  2  0  0  0  0
 16 17  1  0  0  0  0
 17 18  2  0  0  0  0
 17 38  1  0  0  0  0
 18 19  1  0  0  0  0
 18 39  1  0  0  0  0
 19 20  2  0  0  0  0
 19 22  1  0  0  0  0
 20 21  1  0  0  0  0
 20 40  1  0  0  0  0
 21 41  1  0  0  0  0
 22 23  1  0  0  0  0
 22 24  1  0  0  0  0
 22 25  1  0  0  0  0
 23 42  1  0  0  0  0
 23 43  1  0  0  0  0
 23 44  1  0  0  0  0
 24 45  1  0  0  0  0
 24 46  1  0  0  0  0
 24 47  1  0  0  0  0
 25 48  1  0  0  0  0
 25 49  1  0  0  0  0
 25 50  1  0  0  0  0
 26 27  2  0  0  0  0
 26 54  1  0  0  0  0
 28 51  1  0  0  0  0
 28 52  1  0  0  0  0
 28 53  1  0  0  0  0
M  CHG  1  54  -1
M  END
$$$$
ZINC02805970
  -OEChem-08230709463D

 54 55  0     1  0  0  0  0  0999 V2000
    1.5850    3.5044   -0.3869 C   0  0  0  0  0  0  0  0  0  0  0  0
    1.3830    2.0620   -0.0001 C   0  0  0  0  0  0  0  0  0  0  0  0
    2.4293    1.3623    0.3020 C   0  0  0  0  0  0  0  0  0  0  0  0
    2.3879   -0.0853    0.6952 C   0  0  0  0  0  0  0  0  0  0  0  0
    0.9654   -0.4822    1.0958 C   0  0  1  0  0  0  0  0  0  0  0  0
    0.7066   -0.0106    2.0438 H   0  0  0  0  0  0  0  0  0  0  0  0
    0.0021   -0.0041    0.0020 C   0  0  2  0  0  0  0  0  0  0  0  0
    0.3447   -0.3605   -0.9694 H   0  0  0  0  0  0  0  0  0  0  0  0
   -0.0187    1.5260    0.0104 C   0  0  0  0  0  0  0  0  0  0  0  0
   -1.3831   -0.5310    0.2752 C   0  0  0  0  0  0  0  0  0  0  0  0
   -1.5838   -1.2375    1.2403 O   0  0  0  0  0  0  0  0  0  0  0  0
   -2.3990   -0.2171   -0.5531 N   0  0  0  0  0  0  0  0  0  0  0  0
   -3.6868   -0.7069   -0.2992 N   0  0  0  0  0  0  0  0  0  0  0  0
   -4.7026   -0.3930   -1.1274 C   0  0  0  0  0  0  0  0  0  0  0  0
   -4.5015    0.3151   -2.0946 O   0  0  0  0  0  0  0  0  0  0  0  0
   -6.0616   -0.9099   -0.8594 C   0  0  0  0  0  0  0  0  0  0  0  0
   -6.2947   -1.7280    0.2472 C   0  0  0  0  0  0  0  0  0  0  0  0
   -7.5661   -2.2035    0.4939 C   0  0  0  0  0  0  0  0  0  0  0  0
   -8.6067   -1.8793   -0.3583 C   0  0  0  0  0  0  0  0  0  0  0  0
   -8.3814   -1.0727   -1.4597 C   0  0  0  0  0  0  0  0  0  0  0  0
   -7.1158   -0.5867   -1.7152 C   0  0  0  0  0  0  0  0  0  0  0  0
   -9.9918   -2.4066   -0.0854 C   0  0  0  0  0  0  0  0  0  0  0  0
  -10.4564   -3.2565   -1.2698 C   0  0  0  0  0  0  0  0  0  0  0  0
   -9.9705   -3.2650    1.1809 C   0  0  0  0  0  0  0  0  0  0  0  0
  -10.9548   -1.2338    0.1095 C   0  0  0  0  0  0  0  0  0  0  0  0
    0.8724   -1.9801    1.2333 C   0  0  0  0  0  0  0  0  0  0  0  0
    0.1144   -2.6054    0.5302 O   0  0  0  0  0  0  0  0  0  0  0  0
    3.7725    2.0440    0.2560 C   0  0  0  0  0  0  0  0  0  0  0  0
    1.5349    4.1300    0.5043 H   0  0  0  0  0  0  0  0  0  0  0  0
    2.5609    3.6210   -0.8581 H   0  0  0  0  0  0  0  0  0  0  0  0
    0.8054    3.8056   -1.0865 H   0  0  0  0  0  0  0  0  0  0  0  0
    3.0598   -0.2503    1.5375 H   0  0  0  0  0  0  0  0  0  0  0  0
    2.7094   -0.6961   -0.1484 H   0  0  0  0  0  0  0  0  0  0  0  0
   -0.5494    1.8850   -0.8714 H   0  0  0  0  0  0  0  0  0  0  0  0
   -0.5324    1.8755    0.9060 H   0  0  0  0  0  0  0  0  0  0  0  0
   -2.2385    0.3480   -1.3250 H   0  0  0  0  0  0  0  0  0  0  0  0
   -3.8473   -1.2720    0.4727 H   0  0  0  0  0  0  0  0  0  0  0  0
   -5.4824   -1.9854    0.9107 H   0  0  0  0  0  0  0  0  0  0  0  0
   -7.7486   -2.8335    1.3519 H   0  0  0  0  0  0  0  0  0  0  0  0
   -9.1980   -0.8234   -2.1210 H   0  0  0  0  0  0  0  0  0  0  0  0
   -6.9412    0.0428   -2.5752 H   0  0  0  0  0  0  0  0  0  0  0  0
   -9.7704   -4.0921   -1.4087 H   0  0  0  0  0  0  0  0  0  0  0  0
  -11.4583   -3.6380   -1.0725 H   0  0  0  0  0  0  0  0  0  0  0  0
  -10.4716   -2.6451   -2.1720 H   0  0  0  0  0  0  0  0  0  0  0  0
   -9.6395   -2.6595    2.0247 H   0  0  0  0  0  0  0  0  0  0  0  0
  -10.9723   -3.6464    1.3783 H   0  0  0  0  0  0  0  0  0  0  0  0
   -9.2844   -4.1005    1.0420 H   0  0  0  0  0  0  0  0  0  0  0  0
  -10.9700   -0.6223   -0.7927 H   0  0  0  0  0  0  0  0  0  0  0  0
  -11.9567   -1.6152    0.3069 H   0  0  0  0  0  0  0  0  0  0  0  0
  -10.6238   -0.6283    0.9533 H   0  0  0  0  0  0  0  0  0  0  0  0
    4.2000    1.9375   -0.7410 H   0  0  0  0  0  0  0  0  0  0  0  0
    3.6512    3.1020    0.4883 H   0  0  0  0  0  0  0  0  0  0  0  0
    4.4379    1.5853    0.9874 H   0  0  0  0  0  0  0  0  0  0  0  0
    1.6318   -2.6195    2.1368 O   0  5  0  0  0  0  0  0  0  0  0  0
  1  2  1  0  0  0  0
  1 29  1  0  0  0  0
  1 30  1  0  0  0  0
  1 31  1  0  0  0  0
  2  9  1  0  0  0  0
  2  3  2  0  0  0  0
  3  4  1  0  0  0  0
  3 28  1  0  0  0  0
  4  5  1  0  0  0  0
  4 32  1  0  0  0  0
  4 33  1  0  0  0  0
  5  6  1  0  0  0  0
  5  7  1  0  0  0  0
  5 26  1  0  0  0  0
  7  8  1  0  0  0  0
  7  9  1  0  0  0  0
  7 10  1  0  0  0  0
  9 34  1  0  0  0  0
  9 35  1  0  0  0  0
 10 11  2  0  0  0  0
 10 12  1  0  0  0  0
 12 13  1  0  0  0  0
 12 36  1  0  0  0  0
 13 14  1  0  0  0  0
 13 37  1  0  0  0  0
 14 15  2  0  0  0  0
 14 16  1  0  0  0  0
 16 21  2  0  0  0  0
 16 17  1  0  0  0  0
 17 18  2  0  0  0  0
 17 38  1  0  0  0  0
 18 19  1  0  0  0  0
 18 39  1  0  0  0  0
 19 20  2  0  0  0  0
 19 22  1  0  0  0  0
 20 21  1  0  0  0  0
 20 40  1  0  0  0  0
 21 41  1  0  0  0  0
 22 23  1  0  0  0  0
 22 24  1  0  0  0  0
 22 25  1  0  0  0  0
 23 42  1  0  0  0  0
 23 43  1  0  0  0  0
 23 44  1  0  0  0  0
 24 45  1  0  0  0  0
 24 46  1  0  0  0  0
 24 47  1  0  0  0  0
 25 48  1  0  0  0  0
 25 49  1  0  0  0  0
 25 50  1  0  0  0  0
 26 27  2  0  0  0  0
 26 54  1  0  0  0  0
 28 51  1  0  0  0  0
 28 52  1  0  0  0  0
 28 53  1  0  0  0  0
M  CHG  1  54  -1
M  END
$$$$
ZINC02805971
  -OEChem-08230709463D

 54 55  0     1  0  0  0  0  0999 V2000
   10.6789    2.4863    0.1431 C   0  0  0  0  0  0  0  0  0  0  0  0
    9.9393    1.3017   -0.4232 C   0  0  0  0  0  0  0  0  0  0  0  0
    9.5976    1.3395   -1.6711 C   0  0  0  0  0  0  0  0  0  0  0  0
    8.8507    0.2427   -2.3719 C   0  0  0  0  0  0  0  0  0  0  0  0
    8.9307   -1.0518   -1.5598 C   0  0  1  0  0  0  0  0  0  0  0  0
    9.9461   -1.4461   -1.5979 H   0  0  0  0  0  0  0  0  0  0  0  0
    8.5539   -0.7370   -0.1066 C   0  0  1  0  0  0  0  0  0  0  0  0
    8.4777   -1.6642    0.4613 H   0  0  0  0  0  0  0  0  0  0  0  0
    9.6452    0.1514    0.4947 C   0  0  0  0  0  0  0  0  0  0  0  0
    7.2335   -0.0114   -0.0714 C   0  0  0  0  0  0  0  0  0  0  0  0
    7.1910    1.1813   -0.2872 O   0  0  0  0  0  0  0  0  0  0  0  0
    6.0999   -0.6880    0.1999 N   0  0  0  0  0  0  0  0  0  0  0  0
    4.8724   -0.0135    0.2326 N   0  0  0  0  0  0  0  0  0  0  0  0
    3.7387   -0.6900    0.5039 C   0  0  0  0  0  0  0  0  0  0  0  0
    3.7813   -1.8854    0.7202 O   0  0  0  0  0  0  0  0  0  0  0  0
    2.4434    0.0218    0.5385 C   0  0  0  0  0  0  0  0  0  0  0  0
    1.2675   -0.6759    0.8191 C   0  0  0  0  0  0  0  0  0  0  0  0
    0.0620   -0.0058    0.8494 C   0  0  0  0  0  0  0  0  0  0  0  0
    0.0170    1.3549    0.6027 C   0  0  0  0  0  0  0  0  0  0  0  0
    1.1789    2.0524    0.3239 C   0  0  0  0  0  0  0  0  0  0  0  0
    2.3909    1.3943    0.2901 C   0  0  0  0  0  0  0  0  0  0  0  0
   -1.3042    2.0793    0.6317 C   0  0  0  0  0  0  0  0  0  0  0  0
   -1.9364    1.9316    2.0171 C   0  0  0  0  0  0  0  0  0  0  0  0
   -1.0795    3.5621    0.3291 C   0  0  0  0  0  0  0  0  0  0  0  0
   -2.2379    1.4796   -0.4216 C   0  0  0  0  0  0  0  0  0  0  0  0
    7.9712   -2.0684   -2.1230 C   0  0  0  0  0  0  0  0  0  0  0  0
    7.0759   -2.4997   -1.4358 O   0  0  0  0  0  0  0  0  0  0  0  0
    9.9736    2.5607   -2.4700 C   0  0  0  0  0  0  0  0  0  0  0  0
   10.0351    3.3653    0.1121 H   0  0  0  0  0  0  0  0  0  0  0  0
   10.9612    2.2789    1.1753 H   0  0  0  0  0  0  0  0  0  0  0  0
   11.5755    2.6715   -0.4485 H   0  0  0  0  0  0  0  0  0  0  0  0
    9.2887    0.0791   -3.3565 H   0  0  0  0  0  0  0  0  0  0  0  0
    7.8065    0.5343   -2.4850 H   0  0  0  0  0  0  0  0  0  0  0  0
    9.3089    0.5347    1.4581 H   0  0  0  0  0  0  0  0  0  0  0  0
   10.5514   -0.4369    0.6386 H   0  0  0  0  0  0  0  0  0  0  0  0
    6.1339   -1.6419    0.3725 H   0  0  0  0  0  0  0  0  0  0  0  0
    4.8384    0.9404    0.0600 H   0  0  0  0  0  0  0  0  0  0  0  0
    1.3014   -1.7379    1.0126 H   0  0  0  0  0  0  0  0  0  0  0  0
   -0.8486   -0.5444    1.0664 H   0  0  0  0  0  0  0  0  0  0  0  0
    1.1370    3.1145    0.1323 H   0  0  0  0  0  0  0  0  0  0  0  0
    3.2972    1.9399    0.0727 H   0  0  0  0  0  0  0  0  0  0  0  0
   -1.2713    2.3589    2.7675 H   0  0  0  0  0  0  0  0  0  0  0  0
   -2.8920    2.4556    2.0381 H   0  0  0  0  0  0  0  0  0  0  0  0
   -2.0965    0.8752    2.2327 H   0  0  0  0  0  0  0  0  0  0  0  0
   -0.6291    3.6673   -0.6579 H   0  0  0  0  0  0  0  0  0  0  0  0
   -2.0351    4.0861    0.3501 H   0  0  0  0  0  0  0  0  0  0  0  0
   -0.4143    3.9894    1.0795 H   0  0  0  0  0  0  0  0  0  0  0  0
   -2.3979    0.4231   -0.2060 H   0  0  0  0  0  0  0  0  0  0  0  0
   -3.1934    2.0035   -0.4006 H   0  0  0  0  0  0  0  0  0  0  0  0
   -1.7874    1.5848   -1.4086 H   0  0  0  0  0  0  0  0  0  0  0  0
    9.2174    3.3332   -2.3304 H   0  0  0  0  0  0  0  0  0  0  0  0
   10.9403    2.9331   -2.1311 H   0  0  0  0  0  0  0  0  0  0  0  0
   10.0350    2.2991   -3.5264 H   0  0  0  0  0  0  0  0  0  0  0  0
    8.1112   -2.4946   -3.3881 O   0  5  0  0  0  0  0  0  0  0  0  0
  1  2  1  0  0  0  0
  1 29  1  0  0  0  0
  1 30  1  0  0  0  0
  1 31  1  0  0  0  0
  2  9  1  0  0  0  0
  2  3  2  0  0  0  0
  3  4  1  0  0  0  0
  3 28  1  0  0  0  0
  4  5  1  0  0  0  0
  4 32  1  0  0  0  0
  4 33  1  0  0  0  0
  5  6  1  0  0  0  0
  5  7  1  0  0  0  0
  5 26  1  0  0  0  0
  7  8  1  0  0  0  0
  7  9  1  0  0  0  0
  7 10  1  0  0  0  0
  9 34  1  0  0  0  0
  9 35  1  0  0  0  0
 10 11  2  0  0  0  0
 10 12  1  0  0  0  0
 12 13  1  0  0  0  0
 12 36  1  0  0  0  0
 13 14  1  0  0  0  0
 13 37  1  0  0  0  0
 14 15  2  0  0  0  0
 14 16  1  0  0  0  0
 16 21  2  0  0  0  0
 16 17  1  0  0  0  0
 17 18  2  0  0  0  0
 17 38  1  0  0  0  0
 18 19  1  0  0  0  0
 18 39  1  0  0  0  0
 19 20  2  0  0  0  0
 19 22  1  0  0  0  0
 20 21  1  0  0  0  0
 20 40  1  0  0  0  0
 21 41  1  0  0  0  0
 22 23  1  0  0  0  0
 22 24  1  0  0  0  0
 22 25  1  0  0  0  0
 23 42  1  0  0  0  0
 23 43  1  0  0  0  0
 23 44  1  0  0  0  0
 24 45  1  0  0  0  0
 24 46  1  0  0  0  0
 24 47  1  0  0  0  0
 25 48  1  0  0  0  0
 25 49  1  0  0  0  0
 25 50  1  0  0  0  0
 26 27  2  0  0  0  0
 26 54  1  0  0  0  0
 28 51  1  0  0  0  0
 28 52  1  0  0  0  0
 28 53  1  0  0  0  0
M  CHG  1  54  -1
M  END
$$$$
ZINC02856871
  -OEChem-08230709463D

 52 55  0     1  0  0  0  0  0999 V2000
   -1.5081    8.8592   -4.1420 C   0  0  0  0  0  0  0  0  0  0  0  0
   -0.0949    8.7880   -3.5600 C   0  0  0  0  0  0  0  0  0  0  0  0
    0.5704    7.5938   -4.0493 O   0  0  0  0  0  0  0  0  0  0  0  0
    1.8337    7.3803   -3.6276 C   0  0  0  0  0  0  0  0  0  0  0  0
    2.3644    8.1714   -2.8713 O   0  0  0  0  0  0  0  0  0  0  0  0
    2.5665    6.1960   -4.0804 C   0  0  0  0  0  0  0  0  0  0  0  0
    3.3768    6.2260   -5.2866 C   0  0  0  0  0  0  0  0  0  0  0  0
    3.9987    5.0666   -5.5909 C   0  0  0  0  0  0  0  0  0  0  0  0
    3.5303    3.9490   -4.3002 S   0  0  0  0  0  0  0  0  0  0  0  0
    2.5129    5.0018   -3.3736 C   0  0  0  0  0  0  0  0  0  0  0  0
    1.8188    4.7218   -2.2069 N   0  0  0  0  0  0  0  0  0  0  0  0
    1.8874    3.4916   -1.6607 C   0  0  0  0  0  0  0  0  0  0  0  0
    2.5565    2.6295   -2.1901 O   0  0  0  0  0  0  0  0  0  0  0  0
    1.1329    3.1872   -0.3923 C   0  0  1  0  0  0  0  0  0  0  0  0
    0.1716    3.7010   -0.3869 H   0  0  0  0  0  0  0  0  0  0  0  0
    0.9333    1.6472   -0.2243 C   0  0  1  0  0  0  0  0  0  0  0  0
    0.6046    1.1035   -1.1100 H   0  0  0  0  0  0  0  0  0  0  0  0
    2.3224    1.2468    0.3946 C   0  0  0  0  0  0  0  0  0  0  0  0
    2.1698    2.2356    1.6079 C   0  0  1  0  0  0  0  0  0  0  0  0
    2.9613    2.2160    2.3570 H   0  0  0  0  0  0  0  0  0  0  0  0
    1.9699    3.5855    0.8479 C   0  0  1  0  0  0  0  0  0  0  0  0
    3.3190    4.1679    0.4218 C   0  0  0  0  0  0  0  0  0  0  0  0
    1.2136    4.5685    1.7040 C   0  0  0  0  0  0  0  0  0  0  0  0
    0.1426    4.9905    1.3368 O   0  0  0  0  0  0  0  0  0  0  0  0
    0.7625    1.8700    2.0954 C   0  0  0  0  0  0  0  0  0  0  0  0
    0.0465    1.5195    1.0204 C   0  0  0  0  0  0  0  0  0  0  0  0
    4.8911    4.8010   -6.7639 C   0  0  0  0  0  0  0  0  0  0  0  0
    4.7009    5.9343   -7.7826 C   0  0  0  0  0  0  0  0  0  0  0  0
    4.7762    7.2758   -7.0478 C   0  0  0  0  0  0  0  0  0  0  0  0
    3.5374    7.4578   -6.1691 C   0  0  0  0  0  0  0  0  0  0  0  0
   -2.0719    7.9780   -3.8359 H   0  0  0  0  0  0  0  0  0  0  0  0
   -2.0075    9.7558   -3.7747 H   0  0  0  0  0  0  0  0  0  0  0  0
   -1.4516    8.8947   -5.2300 H   0  0  0  0  0  0  0  0  0  0  0  0
   -0.1513    8.7526   -2.4721 H   0  0  0  0  0  0  0  0  0  0  0  0
    0.4689    9.6692   -3.8661 H   0  0  0  0  0  0  0  0  0  0  0  0
    1.2837    5.4113   -1.7836 H   0  0  0  0  0  0  0  0  0  0  0  0
    3.1502    1.5157   -0.2616 H   0  0  0  0  0  0  0  0  0  0  0  0
    2.3693    0.2042    0.7090 H   0  0  0  0  0  0  0  0  0  0  0  0
    3.8507    3.4412   -0.1925 H   0  0  0  0  0  0  0  0  0  0  0  0
    3.1560    5.0796   -0.1529 H   0  0  0  0  0  0  0  0  0  0  0  0
    3.9115    4.3977    1.3074 H   0  0  0  0  0  0  0  0  0  0  0  0
    0.4221    1.8974    3.1200 H   0  0  0  0  0  0  0  0  0  0  0  0
   -0.9865    1.2045    1.0302 H   0  0  0  0  0  0  0  0  0  0  0  0
    5.9302    4.7728   -6.4358 H   0  0  0  0  0  0  0  0  0  0  0  0
    4.6237    3.8481   -7.2205 H   0  0  0  0  0  0  0  0  0  0  0  0
    5.4880    5.8851   -8.5351 H   0  0  0  0  0  0  0  0  0  0  0  0
    3.7282    5.8332   -8.2641 H   0  0  0  0  0  0  0  0  0  0  0  0
    5.6694    7.2969   -6.4234 H   0  0  0  0  0  0  0  0  0  0  0  0
    4.8243    8.0854   -7.7760 H   0  0  0  0  0  0  0  0  0  0  0  0
    2.6558    7.5731   -6.7996 H   0  0  0  0  0  0  0  0  0  0  0  0
    3.6599    8.3420   -5.5435 H   0  0  0  0  0  0  0  0  0  0  0  0
    1.7297    4.9751    2.8745 O   0  5  0  0  0  0  0  0  0  0  0  0
  1  2  1  0  0  0  0
  1 31  1  0  0  0  0
  1 32  1  0  0  0  0
  1 33  1  0  0  0  0
  2  3  1  0  0  0  0
  2 34  1  0  0  0  0
  2 35  1  0  0  0  0
  3  4  1  0  0  0  0
  4  5  2  0  0  0  0
  4  6  1  0  0  0  0
  6 10  2  0  0  0  0
  6  7  1  0  0  0  0
  7 30  1  0  0  0  0
  7  8  2  0  0  0  0
  8  9  1  0  0  0  0
  8 27  1  0  0  0  0
  9 10  1  0  0  0  0
 10 11  1  0  0  0  0
 11 12  1  0  0  0  0
 11 36  1  0  0  0  0
 12 13  2  0  0  0  0
 12 14  1  0  0  0  0
 14 15  1  0  0  0  0
 14 21  1  0  0  0  0
 14 16  1  0  0  0  0
 16 17  1  0  0  0  0
 16 26  1  0  0  0  0
 16 18  1  0  0  0  0
 18 19  1  0  0  0  0
 18 37  1  0  0  0  0
 18 38  1  0  0  0  0
 19 20  1  0  0  0  0
 19 21  1  0  0  0  0
 19 25  1  0  0  0  0
 21 22  1  0  0  0  0
 21 23  1  0  0  0  0
 22 39  1  0  0  0  0
 22 40  1  0  0  0  0
 22 41  1  0  0  0  0
 23 24  2  0  0  0  0
 23 52  1  0  0  0  0
 25 26  2  0  0  0  0
 25 42  1  0  0  0  0
 26 43  1  0  0  0  0
 27 28  1  0  0  0  0
 27 44  1  0  0  0  0
 27 45  1  0  0  0  0
 28 29  1  0  0  0  0
 28 46  1  0  0  0  0
 28 47  1  0  0  0  0
 29 30  1  0  0  0  0
 29 48  1  0  0  0  0
 29 49  1  0  0  0  0
 30 50  1  0  0  0  0
 30 51  1  0  0  0  0
M  CHG  1  52  -1
M  END
$$$$
ZINC02887287
  -OEChem-08230709463D

 48 50  0     0  0  0  0  0  0999 V2000
    2.1283   -1.6196    6.4108 C   0  0  0  0  0  0  0  0  0  0  0  0
    2.1383   -0.1901    5.9338 C   0  0  0  0  0  0  0  0  0  0  0  0
    2.9252    0.7495    6.5813 C   0  0  0  0  0  0  0  0  0  0  0  0
    2.9484    2.0616    6.1572 C   0  0  0  0  0  0  0  0  0  0  0  0
    2.1775    2.4539    5.0693 C   0  0  0  0  0  0  0  0  0  0  0  0
    1.3754    1.5011    4.4234 C   0  0  0  0  0  0  0  0  0  0  0  0
    1.3639    0.1805    4.8537 C   0  0  0  0  0  0  0  0  0  0  0  0
    0.5604    1.9472    3.2669 C   0  0  0  0  0  0  0  0  0  0  0  0
   -0.0203    1.0939    2.4537 N   0  0  0  0  0  0  0  0  0  0  0  0
   -0.7230    1.5788    1.2632 C   0  0  0  0  0  0  0  0  0  0  0  0
   -2.2175    1.2791    1.3958 C   0  0  0  0  0  0  0  0  0  0  0  0
   -2.9404    1.7778    0.1711 C   0  0  0  0  0  0  0  0  0  0  0  0
   -2.3236    2.3176   -0.7166 O   0  0  0  0  0  0  0  0  0  0  0  0
    0.4361    3.4031    3.0885 C   0  0  0  0  0  0  0  0  0  0  0  0
    1.2640    4.2087    3.7993 C   0  0  0  0  0  0  0  0  0  0  0  0
    2.1951    3.7329    4.6406 O   0  0  0  0  0  0  0  0  0  0  0  0
    1.1350    5.6717    3.6411 C   0  0  0  0  0  0  0  0  0  0  0  0
    0.1807    6.2015    2.7703 C   0  0  0  0  0  0  0  0  0  0  0  0
    0.0624    7.5688    2.6310 C   0  0  0  0  0  0  0  0  0  0  0  0
    0.8939    8.4145    3.3438 C   0  0  0  0  0  0  0  0  0  0  0  0
    1.8453    7.8961    4.2044 C   0  0  0  0  0  0  0  0  0  0  0  0
    1.9708    6.5309    4.3573 C   0  0  0  0  0  0  0  0  0  0  0  0
    0.7623    9.9070    3.1824 C   0  0  0  0  0  0  0  0  0  0  0  0
    1.0116   10.2859    1.7212 C   0  0  0  0  0  0  0  0  0  0  0  0
   -0.6473   10.3417    3.5886 C   0  0  0  0  0  0  0  0  0  0  0  0
    1.3460   -1.7474    7.1590 H   0  0  0  0  0  0  0  0  0  0  0  0
    1.9363   -2.2827    5.5674 H   0  0  0  0  0  0  0  0  0  0  0  0
    3.0954   -1.8624    6.8512 H   0  0  0  0  0  0  0  0  0  0  0  0
    3.5264    0.4509    7.4273 H   0  0  0  0  0  0  0  0  0  0  0  0
    3.5651    2.7844    6.6707 H   0  0  0  0  0  0  0  0  0  0  0  0
    0.7497   -0.5503    4.3487 H   0  0  0  0  0  0  0  0  0  0  0  0
   -0.3290    1.0773    0.3792 H   0  0  0  0  0  0  0  0  0  0  0  0
   -0.5753    2.6544    1.1669 H   0  0  0  0  0  0  0  0  0  0  0  0
   -2.6116    1.7806    2.2797 H   0  0  0  0  0  0  0  0  0  0  0  0
   -2.3653    0.2035    1.4920 H   0  0  0  0  0  0  0  0  0  0  0  0
   -0.2941    3.8184    2.4099 H   0  0  0  0  0  0  0  0  0  0  0  0
   -0.4661    5.5424    2.2103 H   0  0  0  0  0  0  0  0  0  0  0  0
   -0.6778    7.9800    1.9607 H   0  0  0  0  0  0  0  0  0  0  0  0
    2.4913    8.5618    4.7575 H   0  0  0  0  0  0  0  0  0  0  0  0
    2.7136    6.1276    5.0296 H   0  0  0  0  0  0  0  0  0  0  0  0
    1.4938   10.4070    3.8173 H   0  0  0  0  0  0  0  0  0  0  0  0
    0.2801    9.7859    1.0863 H   0  0  0  0  0  0  0  0  0  0  0  0
    0.9164   11.3655    1.6044 H   0  0  0  0  0  0  0  0  0  0  0  0
    2.0158    9.9763    1.4318 H   0  0  0  0  0  0  0  0  0  0  0  0
   -0.8249   10.0717    4.6296 H   0  0  0  0  0  0  0  0  0  0  0  0
   -0.7425   11.4212    3.4718 H   0  0  0  0  0  0  0  0  0  0  0  0
   -1.3788    9.8417    2.9537 H   0  0  0  0  0  0  0  0  0  0  0  0
   -4.2696    1.6225    0.0665 O   0  5  0  0  0  0  0  0  0  0  0  0
  1  2  1  0  0  0  0
  1 26  1  0  0  0  0
  1 27  1  0  0  0  0
  1 28  1  0  0  0  0
  2  7  2  0  0  0  0
  2  3  1  0  0  0  0
  3  4  2  0  0  0  0
  3 29  1  0  0  0  0
  4  5  1  0  0  0  0
  4 30  1  0  0  0  0
  5 16  1  0  0  0  0
  5  6  2  0  0  0  0
  6  7  1  0  0  0  0
  6  8  1  0  0  0  0
  7 31  1  0  0  0  0
  8  9  2  0  0  0  0
  8 14  1  0  0  0  0
  9 10  1  0  0  0  0
 10 11  1  0  0  0  0
 10 32  1  0  0  0  0
 10 33  1  0  0  0  0
 11 12  1  0  0  0  0
 11 34  1  0  0  0  0
 11 35  1  0  0  0  0
 12 13  2  0  0  0  0
 12 48  1  0  0  0  0
 14 15  2  0  0  0  0
 14 36  1  0  0  0  0
 15 16  1  0  0  0  0
 15 17  1  0  0  0  0
 17 22  2  0  0  0  0
 17 18  1  0  0  0  0
 18 19  2  0  0  0  0
 18 37  1  0  0  0  0
 19 20  1  0  0  0  0
 19 38  1  0  0  0  0
 20 21  2  0  0  0  0
 20 23  1  0  0  0  0
 21 22  1  0  0  0  0
 21 39  1  0  0  0  0
 22 40  1  0  0  0  0
 23 24  1  0  0  0  0
 23 25  1  0  0  0  0
 23 41  1  0  0  0  0
 24 42  1  0  0  0  0
 24 43  1  0  0  0  0
 24 44  1  0  0  0  0
 25 45  1  0  0  0  0
 25 46  1  0  0  0  0
 25 47  1  0  0  0  0
M  CHG  1  48  -1
M  END
$$$$
ZINC02982600
  -OEChem-08230709463D

 57 61  0     0  0  0  0  0  0999 V2000
    5.4501    3.0531   -1.4959 C   0  0  0  0  0  0  0  0  0  0  0  0
    4.1111    2.3129   -1.4816 C   0  0  0  0  0  0  0  0  0  0  0  0
    3.6856    2.0565   -0.0345 C   0  0  0  0  0  0  0  0  0  0  0  0
    2.3668    1.3275   -0.0204 C   0  0  0  0  0  0  0  0  0  0  0  0
    1.1882    2.0597    0.0018 C   0  0  0  0  0  0  0  0  0  0  0  0
   -0.0168    1.3896    0.0097 C   0  0  0  0  0  0  0  0  0  0  0  0
    0.0021   -0.0041    0.0020 C   0  0  0  0  0  0  0  0  0  0  0  0
   -1.0382   -1.0478    0.0095 C   0  0  0  0  0  0  0  0  0  0  0  0
   -0.3431   -2.2652   -0.0052 C   0  0  0  0  0  0  0  0  0  0  0  0
   -1.0751   -3.4584   -0.0013 C   0  0  0  0  0  0  0  0  0  0  0  0
   -2.4832   -3.3743    0.0162 C   0  0  0  0  0  0  0  0  0  0  0  0
   -3.0890   -2.1147    0.0295 C   0  0  0  0  0  0  0  0  0  0  0  0
   -2.3659   -1.0177    0.0255 N   0  0  0  0  0  0  0  0  0  0  0  0
   -4.5925   -2.0135    0.0483 C   0  0  0  0  0  0  0  0  0  0  0  0
   -3.3042   -4.5976    0.0214 C   0  0  0  0  0  0  0  0  0  0  0  0
   -3.6563   -5.0975   -1.0288 O   0  0  0  0  0  0  0  0  0  0  0  0
   -0.3909   -4.7716   -0.0152 C   0  0  0  0  0  0  0  0  0  0  0  0
    0.3668   -5.1548   -1.1220 C   0  0  0  0  0  0  0  0  0  0  0  0
    1.0055   -6.3778   -1.1271 C   0  0  0  0  0  0  0  0  0  0  0  0
    0.8874   -7.2277   -0.0418 C   0  0  0  0  0  0  0  0  0  0  0  0
    0.1335   -6.8553    1.0568 C   0  0  0  0  0  0  0  0  0  0  0  0
   -0.5061   -5.6329    1.0760 C   0  0  0  0  0  0  0  0  0  0  0  0
    0.9820   -2.0097   -0.0211 O   0  0  0  0  0  0  0  0  0  0  0  0
    1.2303   -0.6831   -0.0175 C   0  0  0  0  0  0  0  0  0  0  0  0
    2.3601    0.0115   -0.0291 N   0  0  0  0  0  0  0  0  0  0  0  0
   -1.3279    2.1269    0.0200 C   0  0  0  0  0  0  0  0  0  0  0  0
   -1.0999    3.5797    0.4445 C   0  0  0  0  0  0  0  0  0  0  0  0
   -0.0189    4.1144   -0.3275 O   0  0  0  0  0  0  0  0  0  0  0  0
    1.2507    3.5630    0.0223 C   0  0  0  0  0  0  0  0  0  0  0  0
   -0.7442    3.6313    1.9317 C   0  0  0  0  0  0  0  0  0  0  0  0
   -2.3672    4.3984    0.1905 C   0  0  0  0  0  0  0  0  0  0  0  0
    5.7532    3.2358   -2.5268 H   0  0  0  0  0  0  0  0  0  0  0  0
    5.3450    4.0043   -0.9741 H   0  0  0  0  0  0  0  0  0  0  0  0
    6.2059    2.4465   -0.9970 H   0  0  0  0  0  0  0  0  0  0  0  0
    4.2162    1.3617   -2.0034 H   0  0  0  0  0  0  0  0  0  0  0  0
    3.3553    2.9195   -1.9805 H   0  0  0  0  0  0  0  0  0  0  0  0
    3.5805    3.0077    0.4873 H   0  0  0  0  0  0  0  0  0  0  0  0
    4.4414    1.4499    0.4644 H   0  0  0  0  0  0  0  0  0  0  0  0
   -4.9675   -1.9846   -0.9748 H   0  0  0  0  0  0  0  0  0  0  0  0
   -5.0085   -2.8793    0.5635 H   0  0  0  0  0  0  0  0  0  0  0  0
   -4.8889   -1.1033    0.5697 H   0  0  0  0  0  0  0  0  0  0  0  0
    0.4563   -4.4940   -1.9715 H   0  0  0  0  0  0  0  0  0  0  0  0
    1.5955   -6.6741   -1.9819 H   0  0  0  0  0  0  0  0  0  0  0  0
    1.3862   -8.1855   -0.0521 H   0  0  0  0  0  0  0  0  0  0  0  0
    0.0451   -7.5230    1.9011 H   0  0  0  0  0  0  0  0  0  0  0  0
   -1.0943   -5.3433    1.9342 H   0  0  0  0  0  0  0  0  0  0  0  0
   -1.7641    2.1048   -0.9787 H   0  0  0  0  0  0  0  0  0  0  0  0
   -2.0085    1.6465    0.7228 H   0  0  0  0  0  0  0  0  0  0  0  0
    1.5275    3.8993    1.0215 H   0  0  0  0  0  0  0  0  0  0  0  0
    2.0011    3.9030   -0.6915 H   0  0  0  0  0  0  0  0  0  0  0  0
   -0.5655    4.6652    2.2269 H   0  0  0  0  0  0  0  0  0  0  0  0
   -1.5686    3.2237    2.5168 H   0  0  0  0  0  0  0  0  0  0  0  0
    0.1549    3.0417    2.1109 H   0  0  0  0  0  0  0  0  0  0  0  0
   -2.6222    4.3542   -0.8684 H   0  0  0  0  0  0  0  0  0  0  0  0
   -3.1882    3.9892    0.7793 H   0  0  0  0  0  0  0  0  0  0  0  0
   -2.1941    5.4350    0.4796 H   0  0  0  0  0  0  0  0  0  0  0  0
   -3.6647   -5.1623    1.1908 O   0  5  0  0  0  0  0  0  0  0  0  0
  1  2  1  0  0  0  0
  1 32  1  0  0  0  0
  1 33  1  0  0  0  0
  1 34  1  0  0  0  0
  2  3  1  0  0  0  0
  2 35  1  0  0  0  0
  2 36  1  0  0  0  0
  3  4  1  0  0  0  0
  3 37  1  0  0  0  0
  3 38  1  0  0  0  0
  4 25  2  0  0  0  0
  4  5  1  0  0  0  0
  5 29  1  0  0  0  0
  5  6  2  0  0  0  0
  6  7  1  0  0  0  0
  6 26  1  0  0  0  0
  7 24  2  0  0  0  0
  7  8  1  0  0  0  0
  8 13  2  0  0  0  0
  8  9  1  0  0  0  0
  9 10  2  0  0  0  0
  9 23  1  0  0  0  0
 10 11  1  0  0  0  0
 10 17  1  0  0  0  0
 11 12  2  0  0  0  0
 11 15  1  0  0  0  0
 12 13  1  0  0  0  0
 12 14  1  0  0  0  0
 14 39  1  0  0  0  0
 14 40  1  0  0  0  0
 14 41  1  0  0  0  0
 15 16  2  0  0  0  0
 15 57  1  0  0  0  0
 17 22  2  0  0  0  0
 17 18  1  0  0  0  0
 18 19  2  0  0  0  0
 18 42  1  0  0  0  0
 19 20  1  0  0  0  0
 19 43  1  0  0  0  0
 20 21  2  0  0  0  0
 20 44  1  0  0  0  0
 21 22  1  0  0  0  0
 21 45  1  0  0  0  0
 22 46  1  0  0  0  0
 23 24  1  0  0  0  0
 24 25  1  0  0  0  0
 26 27  1  0  0  0  0
 26 47  1  0  0  0  0
 26 48  1  0  0  0  0
 27 28  1  0  0  0  0
 27 30  1  0  0  0  0
 27 31  1  0  0  0  0
 28 29  1  0  0  0  0
 29 49  1  0  0  0  0
 29 50  1  0  0  0  0
 30 51  1  0  0  0  0
 30 52  1  0  0  0  0
 30 53  1  0  0  0  0
 31 54  1  0  0  0  0
 31 55  1  0  0  0  0
 31 56  1  0  0  0  0
M  CHG  1  57  -1
M  END
$$$$
ZINC02998702
  -OEChem-08230709463D

 47 49  0     0  0  0  0  0  0999 V2000
   -7.2907    4.3254   11.8679 C   0  0  0  0  0  0  0  0  0  0  0  0
   -6.8011    3.7357   10.5704 C   0  0  0  0  0  0  0  0  0  0  0  0
   -7.6660    3.0081    9.7735 C   0  0  0  0  0  0  0  0  0  0  0  0
   -7.2208    2.4666    8.5837 C   0  0  0  0  0  0  0  0  0  0  0  0
   -5.9023    2.6532    8.1878 C   0  0  0  0  0  0  0  0  0  0  0  0
   -5.0346    3.3794    8.9937 C   0  0  0  0  0  0  0  0  0  0  0  0
   -5.4879    3.9229   10.1795 C   0  0  0  0  0  0  0  0  0  0  0  0
   -5.4485    2.1067    6.9843 N   0  0  0  0  0  0  0  0  0  0  0  0
   -4.4811    2.7683    6.2438 C   0  0  0  0  0  0  0  0  0  0  0  0
   -3.8500    2.3741    5.1530 N   0  0  0  0  0  0  0  0  0  0  0  0
   -2.9365    3.1463    4.5696 C   0  0  0  0  0  0  0  0  0  0  0  0
   -2.6566    4.3717    5.1048 C   0  0  0  0  0  0  0  0  0  0  0  0
   -3.7633    4.3833    6.5089 S   0  0  0  0  0  0  0  0  0  0  0  0
   -1.6826    5.4236    4.6400 C   0  0  0  0  0  0  0  0  0  0  0  0
   -2.3726    6.3577    3.6796 C   0  0  0  0  0  0  0  0  0  0  0  0
   -3.5358    6.1869    3.4010 O   0  0  0  0  0  0  0  0  0  0  0  0
   -2.2342    2.6839    3.3479 C   0  0  0  0  0  0  0  0  0  0  0  0
   -1.9170    1.3357    3.1912 C   0  0  0  0  0  0  0  0  0  0  0  0
   -1.2638    0.9111    2.0521 C   0  0  0  0  0  0  0  0  0  0  0  0
   -0.9240    1.8207    1.0668 C   0  0  0  0  0  0  0  0  0  0  0  0
   -1.2316    3.1607    1.2193 C   0  0  0  0  0  0  0  0  0  0  0  0
   -1.8893    3.5959    2.3518 C   0  0  0  0  0  0  0  0  0  0  0  0
   -0.2104    1.3509   -0.1746 C   0  0  0  0  0  0  0  0  0  0  0  0
    1.1395    2.0623   -0.2870 C   0  0  0  0  0  0  0  0  0  0  0  0
   -1.0609    1.6736   -1.4048 C   0  0  0  0  0  0  0  0  0  0  0  0
   -7.1390    3.6071   12.6736 H   0  0  0  0  0  0  0  0  0  0  0  0
   -6.7350    5.2376   12.0850 H   0  0  0  0  0  0  0  0  0  0  0  0
   -8.3523    4.5580   11.7837 H   0  0  0  0  0  0  0  0  0  0  0  0
   -8.6909    2.8634   10.0819 H   0  0  0  0  0  0  0  0  0  0  0  0
   -7.8970    1.8991    7.9615 H   0  0  0  0  0  0  0  0  0  0  0  0
   -4.0078    3.5225    8.6910 H   0  0  0  0  0  0  0  0  0  0  0  0
   -4.8150    4.4914   10.8044 H   0  0  0  0  0  0  0  0  0  0  0  0
   -5.8103    1.2645    6.6670 H   0  0  0  0  0  0  0  0  0  0  0  0
   -1.3204    5.9883    5.4991 H   0  0  0  0  0  0  0  0  0  0  0  0
   -0.8414    4.9441    4.1395 H   0  0  0  0  0  0  0  0  0  0  0  0
   -2.1815    0.6247    3.9600 H   0  0  0  0  0  0  0  0  0  0  0  0
   -1.0172   -0.1332    1.9298 H   0  0  0  0  0  0  0  0  0  0  0  0
   -0.9599    3.8671    0.4488 H   0  0  0  0  0  0  0  0  0  0  0  0
   -2.1324    4.6418    2.4680 H   0  0  0  0  0  0  0  0  0  0  0  0
   -0.0500    0.2743   -0.1160 H   0  0  0  0  0  0  0  0  0  0  0  0
    1.6556    1.7225   -1.1849 H   0  0  0  0  0  0  0  0  0  0  0  0
    0.9790    3.1389   -0.3455 H   0  0  0  0  0  0  0  0  0  0  0  0
    1.7454    1.8324    0.5894 H   0  0  0  0  0  0  0  0  0  0  0  0
   -0.5448    1.3338   -2.3027 H   0  0  0  0  0  0  0  0  0  0  0  0
   -2.0226    1.1667   -1.3247 H   0  0  0  0  0  0  0  0  0  0  0  0
   -1.2214    2.7501   -1.4633 H   0  0  0  0  0  0  0  0  0  0  0  0
   -1.6948    7.3796    3.1335 O   0  5  0  0  0  0  0  0  0  0  0  0
  1  2  1  0  0  0  0
  1 26  1  0  0  0  0
  1 27  1  0  0  0  0
  1 28  1  0  0  0  0
  2  7  2  0  0  0  0
  2  3  1  0  0  0  0
  3  4  2  0  0  0  0
  3 29  1  0  0  0  0
  4  5  1  0  0  0  0
  4 30  1  0  0  0  0
  5  6  2  0  0  0  0
  5  8  1  0  0  0  0
  6  7  1  0  0  0  0
  6 31  1  0  0  0  0
  7 32  1  0  0  0  0
  8  9  1  0  0  0  0
  8 33  1  0  0  0  0
  9 13  1  0  0  0  0
  9 10  2  0  0  0  0
 10 11  1  0  0  0  0
 11 12  2  0  0  0  0
 11 17  1  0  0  0  0
 12 13  1  0  0  0  0
 12 14  1  0  0  0  0
 14 15  1  0  0  0  0
 14 34  1  0  0  0  0
 14 35  1  0  0  0  0
 15 16  2  0  0  0  0
 15 47  1  0  0  0  0
 17 22  2  0  0  0  0
 17 18  1  0  0  0  0
 18 19  2  0  0  0  0
 18 36  1  0  0  0  0
 19 20  1  0  0  0  0
 19 37  1  0  0  0  0
 20 21  2  0  0  0  0
 20 23  1  0  0  0  0
 21 22  1  0  0  0  0
 21 38  1  0  0  0  0
 22 39  1  0  0  0  0
 23 24  1  0  0  0  0
 23 25  1  0  0  0  0
 23 40  1  0  0  0  0
 24 41  1  0  0  0  0
 24 42  1  0  0  0  0
 24 43  1  0  0  0  0
 25 44  1  0  0  0  0
 25 45  1  0  0  0  0
 25 46  1  0  0  0  0
M  CHG  1  47  -1
M  END
$$$$
ZINC03138590
  -OEChem-08230709463D

 57 59  0     0  0  0  0  0  0999 V2000
    7.6398    4.3866   -1.6876 C   0  0  0  0  0  0  0  0  0  0  0  0
    7.9949    3.8995   -0.2814 C   0  0  0  0  0  0  0  0  0  0  0  0
    7.6925    2.4275   -0.1684 C   0  0  0  0  0  0  0  0  0  0  0  0
    8.7100    1.5041   -0.2417 C   0  0  0  0  0  0  0  0  0  0  0  0
    8.4442    0.1424   -0.1437 C   0  0  0  0  0  0  0  0  0  0  0  0
    7.1489   -0.2950    0.0389 C   0  0  0  0  0  0  0  0  0  0  0  0
    6.1153    0.6242    0.1165 C   0  0  0  0  0  0  0  0  0  0  0  0
    6.3767    1.9917    0.0170 C   0  0  0  0  0  0  0  0  0  0  0  0
    5.2767    2.9658    0.1002 C   0  0  0  0  0  0  0  0  0  0  0  0
    5.5186    4.1540    0.1111 O   0  0  0  0  0  0  0  0  0  0  0  0
    3.8497    2.4867    0.1718 C   0  0  0  0  0  0  0  0  0  0  0  0
    2.7386    3.9125    0.2651 S   0  0  0  0  0  0  0  0  0  0  0  0
    1.1846    3.0851    0.3367 C   0  0  0  0  0  0  0  0  0  0  0  0
   -0.0038    3.8336    0.4207 C   0  0  0  0  0  0  0  0  0  0  0  0
   -1.2260    3.1530    0.4765 C   0  0  0  0  0  0  0  0  0  0  0  0
   -1.2106    1.7701    0.4410 C   0  0  0  0  0  0  0  0  0  0  0  0
   -0.0005    1.1033    0.3632 C   0  0  0  0  0  0  0  0  0  0  0  0
    1.1408    1.7612    0.3116 N   0  0  0  0  0  0  0  0  0  0  0  0
    0.0371    5.3052    0.4491 C   0  0  0  0  0  0  0  0  0  0  0  0
    1.1044    5.8844    0.3997 O   0  0  0  0  0  0  0  0  0  0  0  0
    6.7969   -1.7541    0.1690 C   0  0  0  0  0  0  0  0  0  0  0  0
    7.9323   -2.6299   -0.3566 C   0  0  0  0  0  0  0  0  0  0  0  0
    9.2384   -2.1787    0.3077 C   0  0  0  0  0  0  0  0  0  0  0  0
    9.6112   -0.8054   -0.2466 C   0  0  0  0  0  0  0  0  0  0  0  0
   10.0178   -0.9474   -1.7148 C   0  0  0  0  0  0  0  0  0  0  0  0
   10.7900   -0.2428    0.5502 C   0  0  0  0  0  0  0  0  0  0  0  0
    6.5467   -2.0831    1.6421 C   0  0  0  0  0  0  0  0  0  0  0  0
    5.5262   -2.0400   -0.6337 C   0  0  0  0  0  0  0  0  0  0  0  0
    7.8585    5.4513   -1.7693 H   0  0  0  0  0  0  0  0  0  0  0  0
    8.2290    3.8373   -2.4220 H   0  0  0  0  0  0  0  0  0  0  0  0
    6.5791    4.2183   -1.8734 H   0  0  0  0  0  0  0  0  0  0  0  0
    7.4057    4.4488    0.4530 H   0  0  0  0  0  0  0  0  0  0  0  0
    9.0556    4.0678   -0.0956 H   0  0  0  0  0  0  0  0  0  0  0  0
    9.7268    1.8406   -0.3807 H   0  0  0  0  0  0  0  0  0  0  0  0
    5.1009    0.2805    0.2554 H   0  0  0  0  0  0  0  0  0  0  0  0
    3.7298    1.9169    0.9848 H   0  0  0  0  0  0  0  0  0  0  0  0
    3.6174    1.9027   -0.7187 H   0  0  0  0  0  0  0  0  0  0  0  0
   -2.1583    3.6944    0.5410 H   0  0  0  0  0  0  0  0  0  0  0  0
   -2.1361    1.2148    0.4779 H   0  0  0  0  0  0  0  0  0  0  0  0
    0.0089    0.0236    0.3398 H   0  0  0  0  0  0  0  0  0  0  0  0
    8.0124   -2.5174   -1.4378 H   0  0  0  0  0  0  0  0  0  0  0  0
    7.7362   -3.6733   -0.1097 H   0  0  0  0  0  0  0  0  0  0  0  0
   10.0305   -2.8929    0.0827 H   0  0  0  0  0  0  0  0  0  0  0  0
    9.0986   -2.1135    1.3867 H   0  0  0  0  0  0  0  0  0  0  0  0
   10.3035    0.0279   -2.1086 H   0  0  0  0  0  0  0  0  0  0  0  0
   10.8619   -1.6325   -1.7934 H   0  0  0  0  0  0  0  0  0  0  0  0
    9.1775   -1.3389   -2.2882 H   0  0  0  0  0  0  0  0  0  0  0  0
   10.5015   -0.1307    1.5953 H   0  0  0  0  0  0  0  0  0  0  0  0
   11.6363   -0.9258    0.4781 H   0  0  0  0  0  0  0  0  0  0  0  0
   11.0718    0.7290    0.1448 H   0  0  0  0  0  0  0  0  0  0  0  0
    5.7235   -1.4740    2.0157 H   0  0  0  0  0  0  0  0  0  0  0  0
    6.2917   -3.1383    1.7405 H   0  0  0  0  0  0  0  0  0  0  0  0
    7.4465   -1.8714    2.2197 H   0  0  0  0  0  0  0  0  0  0  0  0
    5.6968   -1.7975   -1.6826 H   0  0  0  0  0  0  0  0  0  0  0  0
    5.2682   -3.0951   -0.5420 H   0  0  0  0  0  0  0  0  0  0  0  0
    4.7083   -1.4312   -0.2484 H   0  0  0  0  0  0  0  0  0  0  0  0
   -1.1089    6.0098    0.5297 O   0  5  0  0  0  0  0  0  0  0  0  0
  1  2  1  0  0  0  0
  1 29  1  0  0  0  0
  1 30  1  0  0  0  0
  1 31  1  0  0  0  0
  2  3  1  0  0  0  0
  2 32  1  0  0  0  0
  2 33  1  0  0  0  0
  3  8  2  0  0  0  0
  3  4  1  0  0  0  0
  4  5  2  0  0  0  0
  4 34  1  0  0  0  0
  5 24  1  0  0  0  0
  5  6  1  0  0  0  0
  6  7  2  0  0  0  0
  6 21  1  0  0  0  0
  7  8  1  0  0  0  0
  7 35  1  0  0  0  0
  8  9  1  0  0  0  0
  9 10  2  0  0  0  0
  9 11  1  0  0  0  0
 11 12  1  0  0  0  0
 11 36  1  0  0  0  0
 11 37  1  0  0  0  0
 12 13  1  0  0  0  0
 13 18  2  0  0  0  0
 13 14  1  0  0  0  0
 14 15  2  0  0  0  0
 14 19  1  0  0  0  0
 15 16  1  0  0  0  0
 15 38  1  0  0  0  0
 16 17  2  0  0  0  0
 16 39  1  0  0  0  0
 17 18  1  0  0  0  0
 17 40  1  0  0  0  0
 19 20  2  0  0  0  0
 19 57  1  0  0  0  0
 21 22  1  0  0  0  0
 21 27  1  0  0  0  0
 21 28  1  0  0  0  0
 22 23  1  0  0  0  0
 22 41  1  0  0  0  0
 22 42  1  0  0  0  0
 23 24  1  0  0  0  0
 23 43  1  0  0  0  0
 23 44  1  0  0  0  0
 24 25  1  0  0  0  0
 24 26  1  0  0  0  0
 25 45  1  0  0  0  0
 25 46  1  0  0  0  0
 25 47  1  0  0  0  0
 26 48  1  0  0  0  0
 26 49  1  0  0  0  0
 26 50  1  0  0  0  0
 27 51  1  0  0  0  0
 27 52  1  0  0  0  0
 27 53  1  0  0  0  0
 28 54  1  0  0  0  0
 28 55  1  0  0  0  0
 28 56  1  0  0  0  0
M  CHG  1  57  -1
M  END
$$$$
ZINC03203205
  -OEChem-08230709463D

 50 53  0     1  0  0  0  0  0999 V2000
  -13.5305   -3.9028    3.9888 C   0  0  0  0  0  0  0  0  0  0  0  0
  -13.9451   -2.7412    3.1229 C   0  0  0  0  0  0  0  0  0  0  0  0
  -15.2148   -2.4545    2.9755 C   0  0  0  0  0  0  0  0  0  0  0  0
  -12.8990   -1.9095    2.4265 C   0  0  1  0  0  0  0  0  0  0  0  0
  -13.3637   -1.2090    1.7327 H   0  0  0  0  0  0  0  0  0  0  0  0
  -12.0202   -1.1599    3.4557 C   0  0  0  0  0  0  0  0  0  0  0  0
  -10.6573   -1.2014    2.7921 C   0  0  0  0  0  0  0  0  0  0  0  0
  -10.7237   -2.1551    1.7832 C   0  0  0  0  0  0  0  0  0  0  0  0
   -9.5968   -2.3856    0.9884 C   0  0  0  0  0  0  0  0  0  0  0  0
   -8.4418   -1.6935    1.1998 C   0  0  0  0  0  0  0  0  0  0  0  0
   -8.3656   -0.7380    2.2194 C   0  0  0  0  0  0  0  0  0  0  0  0
   -9.4929   -0.4993    3.0254 C   0  0  0  0  0  0  0  0  0  0  0  0
   -9.4374    0.4189    4.0222 O   0  0  0  0  0  0  0  0  0  0  0  0
   -7.1163    0.0054    2.4496 C   0  0  0  0  0  0  0  0  0  0  0  0
   -7.0246    0.7618    3.3979 O   0  0  0  0  0  0  0  0  0  0  0  0
   -5.9746   -0.1670    1.5297 C   0  0  0  0  0  0  0  0  0  0  0  0
   -5.6423    0.6600    0.3601 C   0  0  0  0  0  0  0  0  0  0  0  0
   -6.2283    1.7807   -0.2309 C   0  0  0  0  0  0  0  0  0  0  0  0
   -5.6520    2.3409   -1.3514 C   0  0  0  0  0  0  0  0  0  0  0  0
   -4.4931    1.7809   -1.8977 C   0  0  0  0  0  0  0  0  0  0  0  0
   -3.9081    0.6719   -1.3180 C   0  0  0  0  0  0  0  0  0  0  0  0
   -4.4739    0.0988   -0.1843 C   0  0  0  0  0  0  0  0  0  0  0  0
   -4.1276   -0.9610    0.5736 O   0  0  0  0  0  0  0  0  0  0  0  0
   -4.9923   -1.1402    1.5879 C   0  0  0  0  0  0  0  0  0  0  0  0
   -4.9069   -2.2040    2.6015 C   0  0  0  0  0  0  0  0  0  0  0  0
   -5.6850   -2.2178    3.5349 O   0  0  0  0  0  0  0  0  0  0  0  0
   -3.9344    2.3358   -3.0053 O   0  0  0  0  0  0  0  0  0  0  0  0
   -2.7480    1.7205   -3.5111 C   0  0  0  0  0  0  0  0  0  0  0  0
   -6.2145    3.4363   -1.9290 O   0  0  0  0  0  0  0  0  0  0  0  0
   -7.3974    3.9563   -1.3186 C   0  0  0  0  0  0  0  0  0  0  0  0
  -11.9482   -2.7457    1.7458 O   0  0  0  0  0  0  0  0  0  0  0  0
  -13.3843   -3.5588    5.0127 H   0  0  0  0  0  0  0  0  0  0  0  0
  -14.3085   -4.6661    3.9697 H   0  0  0  0  0  0  0  0  0  0  0  0
  -12.5991   -4.3238    3.6104 H   0  0  0  0  0  0  0  0  0  0  0  0
  -15.9645   -3.0506    3.4746 H   0  0  0  0  0  0  0  0  0  0  0  0
  -15.5119   -1.6220    2.3550 H   0  0  0  0  0  0  0  0  0  0  0  0
  -12.0047   -1.6852    4.4107 H   0  0  0  0  0  0  0  0  0  0  0  0
  -12.3603   -0.1323    3.5834 H   0  0  0  0  0  0  0  0  0  0  0  0
   -9.6420   -3.1205    0.1983 H   0  0  0  0  0  0  0  0  0  0  0  0
   -7.5802   -1.8840    0.5771 H   0  0  0  0  0  0  0  0  0  0  0  0
   -9.6905    1.3115    3.7494 H   0  0  0  0  0  0  0  0  0  0  0  0
   -7.1259    2.2093    0.1897 H   0  0  0  0  0  0  0  0  0  0  0  0
   -3.0106    0.2498   -1.7454 H   0  0  0  0  0  0  0  0  0  0  0  0
   -1.9712    1.7463   -2.7469 H   0  0  0  0  0  0  0  0  0  0  0  0
   -2.4068    2.2604   -4.3943 H   0  0  0  0  0  0  0  0  0  0  0  0
   -2.9610    0.6853   -3.7778 H   0  0  0  0  0  0  0  0  0  0  0  0
   -7.7417    4.8268   -1.8769 H   0  0  0  0  0  0  0  0  0  0  0  0
   -8.1743    3.1918   -1.3222 H   0  0  0  0  0  0  0  0  0  0  0  0
   -7.1784    4.2469   -0.2912 H   0  0  0  0  0  0  0  0  0  0  0  0
   -3.9654   -3.1632    2.4944 O   0  5  0  0  0  0  0  0  0  0  0  0
  1  2  1  0  0  0  0
  1 32  1  0  0  0  0
  1 33  1  0  0  0  0
  1 34  1  0  0  0  0
  2  3  2  0  0  0  0
  2  4  1  0  0  0  0
  3 35  1  0  0  0  0
  3 36  1  0  0  0  0
  4  5  1  0  0  0  0
  4 31  1  0  0  0  0
  4  6  1  0  0  0  0
  6  7  1  0  0  0  0
  6 37  1  0  0  0  0
  6 38  1  0  0  0  0
  7 12  2  0  0  0  0
  7  8  1  0  0  0  0
  8  9  2  0  0  0  0
  8 31  1  0  0  0  0
  9 10  1  0  0  0  0
  9 39  1  0  0  0  0
 10 11  2  0  0  0  0
 10 40  1  0  0  0  0
 11 12  1  0  0  0  0
 11 14  1  0  0  0  0
 12 13  1  0  0  0  0
 13 41  1  0  0  0  0
 14 15  2  0  0  0  0
 14 16  1  0  0  0  0
 16 24  2  0  0  0  0
 16 17  1  0  0  0  0
 17 22  2  0  0  0  0
 17 18  1  0  0  0  0
 18 19  2  0  0  0  0
 18 42  1  0  0  0  0
 19 20  1  0  0  0  0
 19 29  1  0  0  0  0
 20 21  2  0  0  0  0
 20 27  1  0  0  0  0
 21 22  1  0  0  0  0
 21 43  1  0  0  0  0
 22 23  1  0  0  0  0
 23 24  1  0  0  0  0
 24 25  1  0  0  0  0
 25 26  2  0  0  0  0
 25 50  1  0  0  0  0
 27 28  1  0  0  0  0
 28 44  1  0  0  0  0
 28 45  1  0  0  0  0
 28 46  1  0  0  0  0
 29 30  1  0  0  0  0
 30 47  1  0  0  0  0
 30 48  1  0  0  0  0
 30 49  1  0  0  0  0
M  CHG  1  50  -1
M  END
$$$$
ZINC03218143
  -OEChem-08230709463D

 50 51  0     0  0  0  0  0  0999 V2000
    7.5083   -2.8790   10.0066 C   0  0  0  0  0  0  0  0  0  0  0  0
    7.0043   -1.7731    9.0772 C   0  0  0  0  0  0  0  0  0  0  0  0
    5.6863   -2.2087    8.4339 C   0  0  0  0  0  0  0  0  0  0  0  0
    5.1824   -1.1027    7.5045 C   0  0  0  0  0  0  0  0  0  0  0  0
    3.8644   -1.5384    6.8611 C   0  0  0  0  0  0  0  0  0  0  0  0
    3.3605   -0.4324    5.9317 C   0  0  0  0  0  0  0  0  0  0  0  0
    2.0985   -0.8495    5.3156 N   0  0  0  0  0  0  0  0  0  0  0  0
    1.4480   -0.0061    4.4297 C   0  0  0  0  0  0  0  0  0  0  0  0
    1.7962    1.1982    4.0147 N   0  0  0  0  0  0  0  0  0  0  0  0
    1.0445    1.8705    3.1460 C   0  0  0  0  0  0  0  0  0  0  0  0
   -0.1116    1.3074    2.6861 C   0  0  0  0  0  0  0  0  0  0  0  0
   -0.0845   -0.2599    3.5459 S   0  0  0  0  0  0  0  0  0  0  0  0
   -1.1271    1.8540    1.7160 C   0  0  0  0  0  0  0  0  0  0  0  0
   -2.1190    2.7464    2.4649 C   0  0  0  0  0  0  0  0  0  0  0  0
   -3.1393    3.2864    1.4962 C   0  0  0  0  0  0  0  0  0  0  0  0
   -3.0793    2.9881    0.3269 O   0  0  0  0  0  0  0  0  0  0  0  0
    1.4559    3.2193    2.6857 C   0  0  0  0  0  0  0  0  0  0  0  0
    1.3784    3.5497    1.3337 C   0  0  0  0  0  0  0  0  0  0  0  0
    1.7571    4.8064    0.9096 C   0  0  0  0  0  0  0  0  0  0  0  0
    2.2250    5.7380    1.8260 C   0  0  0  0  0  0  0  0  0  0  0  0
    2.3084    5.4104    3.1723 C   0  0  0  0  0  0  0  0  0  0  0  0
    1.9262    4.1572    3.6035 C   0  0  0  0  0  0  0  0  0  0  0  0
    2.6028    6.9736    1.4042 O   0  0  0  0  0  0  0  0  0  0  0  0
    2.4911    7.2438    0.0054 C   0  0  0  0  0  0  0  0  0  0  0  0
    8.4472   -2.5687   10.4650 H   0  0  0  0  0  0  0  0  0  0  0  0
    6.7681   -3.0650   10.7849 H   0  0  0  0  0  0  0  0  0  0  0  0
    7.6685   -3.7914    9.4322 H   0  0  0  0  0  0  0  0  0  0  0  0
    7.7445   -1.5871    8.2990 H   0  0  0  0  0  0  0  0  0  0  0  0
    6.8441   -0.8607    9.6517 H   0  0  0  0  0  0  0  0  0  0  0  0
    4.9461   -2.3946    9.2121 H   0  0  0  0  0  0  0  0  0  0  0  0
    5.8466   -3.1211    7.8594 H   0  0  0  0  0  0  0  0  0  0  0  0
    5.9226   -0.9168    6.7262 H   0  0  0  0  0  0  0  0  0  0  0  0
    5.0222   -0.1904    8.0789 H   0  0  0  0  0  0  0  0  0  0  0  0
    3.1242   -1.7243    7.6393 H   0  0  0  0  0  0  0  0  0  0  0  0
    4.0246   -2.4507    6.2866 H   0  0  0  0  0  0  0  0  0  0  0  0
    4.1007   -0.2465    5.1535 H   0  0  0  0  0  0  0  0  0  0  0  0
    3.2002    0.4800    6.5062 H   0  0  0  0  0  0  0  0  0  0  0  0
    1.7183   -1.7163    5.5280 H   0  0  0  0  0  0  0  0  0  0  0  0
   -1.6630    1.0285    1.2476 H   0  0  0  0  0  0  0  0  0  0  0  0
   -0.6191    2.4390    0.9494 H   0  0  0  0  0  0  0  0  0  0  0  0
   -1.5838    3.5751    2.9284 H   0  0  0  0  0  0  0  0  0  0  0  0
   -2.6227    2.1628    3.2354 H   0  0  0  0  0  0  0  0  0  0  0  0
    1.0182    2.8239    0.6196 H   0  0  0  0  0  0  0  0  0  0  0  0
    1.6937    5.0643   -0.1372 H   0  0  0  0  0  0  0  0  0  0  0  0
    2.6725    6.1375    3.8829 H   0  0  0  0  0  0  0  0  0  0  0  0
    1.9916    3.9027    4.6511 H   0  0  0  0  0  0  0  0  0  0  0  0
    2.8242    8.2620   -0.1956 H   0  0  0  0  0  0  0  0  0  0  0  0
    3.1122    6.5418   -0.5509 H   0  0  0  0  0  0  0  0  0  0  0  0
    1.4518    7.1338   -0.3040 H   0  0  0  0  0  0  0  0  0  0  0  0
   -4.1147    4.0988    1.9324 O   0  5  0  0  0  0  0  0  0  0  0  0
  1  2  1  0  0  0  0
  1 25  1  0  0  0  0
  1 26  1  0  0  0  0
  1 27  1  0  0  0  0
  2  3  1  0  0  0  0
  2 28  1  0  0  0  0
  2 29  1  0  0  0  0
  3  4  1  0  0  0  0
  3 30  1  0  0  0  0
  3 31  1  0  0  0  0
  4  5  1  0  0  0  0
  4 32  1  0  0  0  0
  4 33  1  0  0  0  0
  5  6  1  0  0  0  0
  5 34  1  0  0  0  0
  5 35  1  0  0  0  0
  6  7  1  0  0  0  0
  6 36  1  0  0  0  0
  6 37  1  0  0  0  0
  7  8  1  0  0  0  0
  7 38  1  0  0  0  0
  8 12  1  0  0  0  0
  8  9  2  0  0  0  0
  9 10  1  0  0  0  0
 10 11  2  0  0  0  0
 10 17  1  0  0  0  0
 11 12  1  0  0  0  0
 11 13  1  0  0  0  0
 13 14  1  0  0  0  0
 13 39  1  0  0  0  0
 13 40  1  0  0  0  0
 14 15  1  0  0  0  0
 14 41  1  0  0  0  0
 14 42  1  0  0  0  0
 15 16  2  0  0  0  0
 15 50  1  0  0  0  0
 17 22  2  0  0  0  0
 17 18  1  0  0  0  0
 18 19  2  0  0  0  0
 18 43  1  0  0  0  0
 19 20  1  0  0  0  0
 19 44  1  0  0  0  0
 20 21  2  0  0  0  0
 20 23  1  0  0  0  0
 21 22  1  0  0  0  0
 21 45  1  0  0  0  0
 22 46  1  0  0  0  0
 23 24  1  0  0  0  0
 24 47  1  0  0  0  0
 24 48  1  0  0  0  0
 24 49  1  0  0  0  0
M  CHG  1  50  -1
M  END
$$$$
ZINC03234956
  -OEChem-08230709463D

 58 60  0     0  0  0  0  0  0999 V2000
    2.9846   -0.9762    2.2853 C   0  0  0  0  0  0  0  0  0  0  0  0
    2.6460   -2.2089    2.7955 C   0  0  0  0  0  0  0  0  0  0  0  0
    3.6222   -3.1796    2.9836 C   0  0  0  0  0  0  0  0  0  0  0  0
    4.9517   -2.9132    2.6514 C   0  0  0  0  0  0  0  0  0  0  0  0
    5.3010   -1.6835    2.1340 C   0  0  0  0  0  0  0  0  0  0  0  0
    4.3166   -0.7019    1.9434 C   0  0  0  0  0  0  0  0  0  0  0  0
    4.6798    0.6057    1.3952 C   0  0  0  0  0  0  0  0  0  0  0  0
    3.7953    1.2821    0.5817 C   0  0  0  0  0  0  0  0  0  0  0  0
    2.5577    0.6256    0.1351 C   0  0  0  0  0  0  0  0  0  0  0  0
    1.4869    0.9637    0.6029 O   0  0  0  0  0  0  0  0  0  0  0  0
    2.6098   -0.3507   -0.7925 N   0  0  0  0  0  0  0  0  0  0  0  0
    1.3950   -1.0881   -1.1488 C   0  0  0  0  0  0  0  0  0  0  0  0
    0.6238   -0.3137   -2.2195 C   0  0  0  0  0  0  0  0  0  0  0  0
   -0.6448   -1.0838   -2.5915 C   0  0  0  0  0  0  0  0  0  0  0  0
   -0.2637   -2.4625   -3.1345 C   0  0  0  0  0  0  0  0  0  0  0  0
    0.5075   -3.2370   -2.0638 C   0  0  0  0  0  0  0  0  0  0  0  0
    1.7762   -2.4668   -1.6917 C   0  0  0  0  0  0  0  0  0  0  0  0
    4.0898    2.6599    0.1608 C   0  0  0  0  0  0  0  0  0  0  0  0
    5.0637    3.2370    0.6063 O   0  0  0  0  0  0  0  0  0  0  0  0
    3.2808    3.2834   -0.7184 N   0  0  0  0  0  0  0  0  0  0  0  0
    3.6322    4.6139   -1.2211 C   0  0  0  0  0  0  0  0  0  0  0  0
    3.1394    5.6772   -0.2375 C   0  0  0  0  0  0  0  0  0  0  0  0
    3.5064    7.0667   -0.7625 C   0  0  0  0  0  0  0  0  0  0  0  0
    2.8467    7.2877   -2.1252 C   0  0  0  0  0  0  0  0  0  0  0  0
    3.3396    6.2243   -3.1088 C   0  0  0  0  0  0  0  0  0  0  0  0
    2.9726    4.8348   -2.5838 C   0  0  0  0  0  0  0  0  0  0  0  0
    5.9029   -3.8671    2.8376 O   0  0  0  0  0  0  0  0  0  0  0  0
    3.2819   -4.3913    3.4917 O   0  0  0  0  0  0  0  0  0  0  0  0
    2.2243   -0.2222    2.1444 H   0  0  0  0  0  0  0  0  0  0  0  0
    1.6191   -2.4208    3.0544 H   0  0  0  0  0  0  0  0  0  0  0  0
    6.3293   -1.4764    1.8767 H   0  0  0  0  0  0  0  0  0  0  0  0
    5.6405    1.0409    1.6279 H   0  0  0  0  0  0  0  0  0  0  0  0
    3.4515   -0.5652   -1.2243 H   0  0  0  0  0  0  0  0  0  0  0  0
    0.7692   -1.2063   -0.2642 H   0  0  0  0  0  0  0  0  0  0  0  0
    0.3523    0.6685   -1.8326 H   0  0  0  0  0  0  0  0  0  0  0  0
    1.2497   -0.1955   -3.1040 H   0  0  0  0  0  0  0  0  0  0  0  0
   -1.1942   -0.5321   -3.3543 H   0  0  0  0  0  0  0  0  0  0  0  0
   -1.2707   -1.2020   -1.7070 H   0  0  0  0  0  0  0  0  0  0  0  0
    0.3622   -2.3443   -4.0190 H   0  0  0  0  0  0  0  0  0  0  0  0
   -1.1675   -3.0112   -3.3995 H   0  0  0  0  0  0  0  0  0  0  0  0
    0.7791   -4.2192   -2.4506 H   0  0  0  0  0  0  0  0  0  0  0  0
   -0.1183   -3.3551   -1.1792 H   0  0  0  0  0  0  0  0  0  0  0  0
    2.4020   -2.3487   -2.5763 H   0  0  0  0  0  0  0  0  0  0  0  0
    2.3256   -3.0186   -0.9290 H   0  0  0  0  0  0  0  0  0  0  0  0
    2.4658    2.8513   -1.0184 H   0  0  0  0  0  0  0  0  0  0  0  0
    4.7146    4.6888   -1.3249 H   0  0  0  0  0  0  0  0  0  0  0  0
    2.0569    5.6023   -0.1337 H   0  0  0  0  0  0  0  0  0  0  0  0
    3.6093    5.5198    0.7333 H   0  0  0  0  0  0  0  0  0  0  0  0
    4.5888    7.1416   -0.8663 H   0  0  0  0  0  0  0  0  0  0  0  0
    3.1553    7.8242   -0.0618 H   0  0  0  0  0  0  0  0  0  0  0  0
    3.1082    8.2775   -2.4992 H   0  0  0  0  0  0  0  0  0  0  0  0
    1.7643    7.2127   -2.0213 H   0  0  0  0  0  0  0  0  0  0  0  0
    4.4220    6.2993   -3.2126 H   0  0  0  0  0  0  0  0  0  0  0  0
    2.8696    6.3817   -4.0796 H   0  0  0  0  0  0  0  0  0  0  0  0
    3.3236    4.0773   -3.2845 H   0  0  0  0  0  0  0  0  0  0  0  0
    1.8901    4.7599   -2.4799 H   0  0  0  0  0  0  0  0  0  0  0  0
    6.3218   -3.8400    3.7087 H   0  0  0  0  0  0  0  0  0  0  0  0
    3.3269   -4.4400    4.4564 H   0  0  0  0  0  0  0  0  0  0  0  0
  1  6  2  0  0  0  0
  1  2  1  0  0  0  0
  1 29  1  0  0  0  0
  2  3  2  0  0  0  0
  2 30  1  0  0  0  0
  3  4  1  0  0  0  0
  3 28  1  0  0  0  0
  4  5  2  0  0  0  0
  4 27  1  0  0  0  0
  5  6  1  0  0  0  0
  5 31  1  0  0  0  0
  6  7  1  0  0  0  0
  7  8  2  0  0  0  0
  7 32  1  0  0  0  0
  8  9  1  0  0  0  0
  8 18  1  0  0  0  0
  9 10  2  0  0  0  0
  9 11  1  0  0  0  0
 11 12  1  0  0  0  0
 11 33  1  0  0  0  0
 12 17  1  0  0  0  0
 12 13  1  0  0  0  0
 12 34  1  0  0  0  0
 13 14  1  0  0  0  0
 13 35  1  0  0  0  0
 13 36  1  0  0  0  0
 14 15  1  0  0  0  0
 14 37  1  0  0  0  0
 14 38  1  0  0  0  0
 15 16  1  0  0  0  0
 15 39  1  0  0  0  0
 15 40  1  0  0  0  0
 16 17  1  0  0  0  0
 16 41  1  0  0  0  0
 16 42  1  0  0  0  0
 17 43  1  0  0  0  0
 17 44  1  0  0  0  0
 18 19  2  0  0  0  0
 18 20  1  0  0  0  0
 20 21  1  0  0  0  0
 20 45  1  0  0  0  0
 21 26  1  0  0  0  0
 21 22  1  0  0  0  0
 21 46  1  0  0  0  0
 22 23  1  0  0  0  0
 22 47  1  0  0  0  0
 22 48  1  0  0  0  0
 23 24  1  0  0  0  0
 23 49  1  0  0  0  0
 23 50  1  0  0  0  0
 24 25  1  0  0  0  0
 24 51  1  0  0  0  0
 24 52  1  0  0  0  0
 25 26  1  0  0  0  0
 25 53  1  0  0  0  0
 25 54  1  0  0  0  0
 26 55  1  0  0  0  0
 26 56  1  0  0  0  0
 27 57  1  0  0  0  0
 28 58  1  0  0  0  0
M  END
$$$$
ZINC03258886
  -OEChem-08230709463D

 58 60  0     0  0  0  0  0  0999 V2000
    2.9777   -0.9699    2.2798 C   0  0  0  0  0  0  0  0  0  0  0  0
    2.6371   -2.2026    2.7890 C   0  0  0  0  0  0  0  0  0  0  0  0
    3.6200   -3.1771    2.9780 C   0  0  0  0  0  0  0  0  0  0  0  0
    4.9490   -2.9052    2.6446 C   0  0  0  0  0  0  0  0  0  0  0  0
    5.2925   -1.6760    2.1288 C   0  0  0  0  0  0  0  0  0  0  0  0
    4.3086   -0.6975    1.9390 C   0  0  0  0  0  0  0  0  0  0  0  0
    4.6730    0.6147    1.3888 C   0  0  0  0  0  0  0  0  0  0  0  0
    3.8015    1.2796    0.5752 C   0  0  0  0  0  0  0  0  0  0  0  0
    2.5680    0.6166    0.1192 C   0  0  0  0  0  0  0  0  0  0  0  0
    1.4923    0.9524    0.5767 O   0  0  0  0  0  0  0  0  0  0  0  0
    2.6311   -0.3622   -0.8051 N   0  0  0  0  0  0  0  0  0  0  0  0
    1.4218   -1.1043   -1.1700 C   0  0  0  0  0  0  0  0  0  0  0  0
    0.6579   -0.3352   -2.2497 C   0  0  0  0  0  0  0  0  0  0  0  0
   -0.6051   -1.1101   -2.6309 C   0  0  0  0  0  0  0  0  0  0  0  0
   -0.2150   -2.4892   -3.1665 C   0  0  0  0  0  0  0  0  0  0  0  0
    0.5489   -3.2583   -2.0867 C   0  0  0  0  0  0  0  0  0  0  0  0
    1.8118   -2.4834   -1.7056 C   0  0  0  0  0  0  0  0  0  0  0  0
    4.0948    2.6598    0.1535 C   0  0  0  0  0  0  0  0  0  0  0  0
    5.0628    3.2411    0.6055 O   0  0  0  0  0  0  0  0  0  0  0  0
    3.2906    3.2788   -0.7333 N   0  0  0  0  0  0  0  0  0  0  0  0
    3.6412    4.6096   -1.2357 C   0  0  0  0  0  0  0  0  0  0  0  0
    3.1368    5.6730   -0.2581 C   0  0  0  0  0  0  0  0  0  0  0  0
    3.5029    7.0628   -0.7827 C   0  0  0  0  0  0  0  0  0  0  0  0
    2.8534    7.2788   -2.1511 C   0  0  0  0  0  0  0  0  0  0  0  0
    3.3578    6.2154   -3.1287 C   0  0  0  0  0  0  0  0  0  0  0  0
    2.9916    4.8256   -2.6040 C   0  0  0  0  0  0  0  0  0  0  0  0
    3.2530   -4.4985    3.5315 C   0  0  0  0  0  0  0  0  0  0  0  0
    4.1068   -5.3464    3.6958 O   0  0  0  0  0  0  0  0  0  0  0  0
    2.2183   -0.2150    2.1387 H   0  0  0  0  0  0  0  0  0  0  0  0
    1.6101   -2.4149    3.0471 H   0  0  0  0  0  0  0  0  0  0  0  0
    5.7074   -3.6600    2.7911 H   0  0  0  0  0  0  0  0  0  0  0  0
    6.3200   -1.4665    1.8705 H   0  0  0  0  0  0  0  0  0  0  0  0
    5.6304    1.0535    1.6279 H   0  0  0  0  0  0  0  0  0  0  0  0
    3.4773   -0.5754   -1.2287 H   0  0  0  0  0  0  0  0  0  0  0  0
    0.7885   -1.2218   -0.2907 H   0  0  0  0  0  0  0  0  0  0  0  0
    0.3801    0.6473   -1.8682 H   0  0  0  0  0  0  0  0  0  0  0  0
    1.2913   -0.2176   -3.1290 H   0  0  0  0  0  0  0  0  0  0  0  0
   -1.1493   -0.5622   -3.4001 H   0  0  0  0  0  0  0  0  0  0  0  0
   -1.2384   -1.2276   -1.7516 H   0  0  0  0  0  0  0  0  0  0  0  0
    0.4183   -2.3717   -4.0457 H   0  0  0  0  0  0  0  0  0  0  0  0
   -1.1148   -3.0413   -3.4380 H   0  0  0  0  0  0  0  0  0  0  0  0
    0.8267   -4.2408   -2.4683 H   0  0  0  0  0  0  0  0  0  0  0  0
   -0.0845   -3.3758   -1.2075 H   0  0  0  0  0  0  0  0  0  0  0  0
    2.4452   -2.3658   -2.5849 H   0  0  0  0  0  0  0  0  0  0  0  0
    2.3561   -3.0313   -0.9364 H   0  0  0  0  0  0  0  0  0  0  0  0
    2.4796    2.8432   -1.0389 H   0  0  0  0  0  0  0  0  0  0  0  0
    4.7241    4.6882   -1.3311 H   0  0  0  0  0  0  0  0  0  0  0  0
    2.0538    5.5943   -0.1627 H   0  0  0  0  0  0  0  0  0  0  0  0
    3.5995    5.5191    0.7167 H   0  0  0  0  0  0  0  0  0  0  0  0
    4.5859    7.1414   -0.8782 H   0  0  0  0  0  0  0  0  0  0  0  0
    3.1436    7.8203   -0.0863 H   0  0  0  0  0  0  0  0  0  0  0  0
    3.1142    8.2689   -2.5248 H   0  0  0  0  0  0  0  0  0  0  0  0
    1.7704    7.2002   -2.0556 H   0  0  0  0  0  0  0  0  0  0  0  0
    4.4407    6.2941   -3.2241 H   0  0  0  0  0  0  0  0  0  0  0  0
    2.8950    6.3693   -4.1035 H   0  0  0  0  0  0  0  0  0  0  0  0
    3.3509    4.0680   -3.3005 H   0  0  0  0  0  0  0  0  0  0  0  0
    1.9086    4.7470   -2.5086 H   0  0  0  0  0  0  0  0  0  0  0  0
    1.9718   -4.7616    3.8534 O   0  5  0  0  0  0  0  0  0  0  0  0
  1  6  2  0  0  0  0
  1  2  1  0  0  0  0
  1 29  1  0  0  0  0
  2  3  2  0  0  0  0
  2 30  1  0  0  0  0
  3  4  1  0  0  0  0
  3 27  1  0  0  0  0
  4  5  2  0  0  0  0
  4 31  1  0  0  0  0
  5  6  1  0  0  0  0
  5 32  1  0  0  0  0
  6  7  1  0  0  0  0
  7  8  2  0  0  0  0
  7 33  1  0  0  0  0
  8  9  1  0  0  0  0
  8 18  1  0  0  0  0
  9 10  2  0  0  0  0
  9 11  1  0  0  0  0
 11 12  1  0  0  0  0
 11 34  1  0  0  0  0
 12 17  1  0  0  0  0
 12 13  1  0  0  0  0
 12 35  1  0  0  0  0
 13 14  1  0  0  0  0
 13 36  1  0  0  0  0
 13 37  1  0  0  0  0
 14 15  1  0  0  0  0
 14 38  1  0  0  0  0
 14 39  1  0  0  0  0
 15 16  1  0  0  0  0
 15 40  1  0  0  0  0
 15 41  1  0  0  0  0
 16 17  1  0  0  0  0
 16 42  1  0  0  0  0
 16 43  1  0  0  0  0
 17 44  1  0  0  0  0
 17 45  1  0  0  0  0
 18 19  2  0  0  0  0
 18 20  1  0  0  0  0
 20 21  1  0  0  0  0
 20 46  1  0  0  0  0
 21 26  1  0  0  0  0
 21 22  1  0  0  0  0
 21 47  1  0  0  0  0
 22 23  1  0  0  0  0
 22 48  1  0  0  0  0
 22 49  1  0  0  0  0
 23 24  1  0  0  0  0
 23 50  1  0  0  0  0
 23 51  1  0  0  0  0
 24 25  1  0  0  0  0
 24 52  1  0  0  0  0
 24 53  1  0  0  0  0
 25 26  1  0  0  0  0
 25 54  1  0  0  0  0
 25 55  1  0  0  0  0
 26 56  1  0  0  0  0
 26 57  1  0  0  0  0
 27 28  2  0  0  0  0
 27 58  1  0  0  0  0
M  CHG  1  58  -1
M  END
$$$$
ZINC03273429
  -OEChem-08230709463D

 53 55  0     1  0  0  0  0  0999 V2000
   -0.7337    1.6102   -1.2409 C   0  0  0  0  0  0  0  0  0  0  0  0
    0.0029    1.0990   -0.0011 C   0  0  2  0  0  0  0  0  0  0  0  0
    0.0213    0.0092   -0.0130 H   0  0  0  0  0  0  0  0  0  0  0  0
   -0.7202    1.5831    1.2573 C   0  0  0  0  0  0  0  0  0  0  0  0
    0.0164    1.0719    2.4972 C   0  0  0  0  0  0  0  0  0  0  0  0
    1.4500    1.6063    2.4952 C   0  0  2  0  0  0  0  0  0  0  0  0
    1.4316    2.6961    2.5071 H   0  0  0  0  0  0  0  0  0  0  0  0
    2.1730    1.1222    1.2367 C   0  0  1  0  0  0  0  0  0  0  0  0
    2.1915    0.0324    1.2248 H   0  0  0  0  0  0  0  0  0  0  0  0
    1.4365    1.6334   -0.0031 C   0  0  0  0  0  0  0  0  0  0  0  0
    3.5336    1.6294    1.2348 O   0  0  0  0  0  0  0  0  0  0  0  0
    4.4631    0.8782    0.6236 C   0  0  0  0  0  0  0  0  0  0  0  0
    4.1502   -0.1684    0.1073 O   0  0  0  0  0  0  0  0  0  0  0  0
    5.8969    1.3403    0.5815 C   0  0  0  0  0  0  0  0  0  0  0  0
    6.7072    0.3530   -0.1361 N   0  0  0  0  0  0  0  0  0  0  0  0
    6.8471    0.4907   -1.4706 C   0  0  0  0  0  0  0  0  0  0  0  0
    6.3127    1.4114   -2.0612 O   0  0  0  0  0  0  0  0  0  0  0  0
    7.6593   -0.4966   -2.1952 C   0  0  0  0  0  0  0  0  0  0  0  0
    7.8654   -0.4431   -3.5701 C   0  0  0  0  0  0  0  0  0  0  0  0
    8.6418   -1.4086   -4.1749 C   0  0  0  0  0  0  0  0  0  0  0  0
    9.2166   -2.4281   -3.4276 C   0  0  0  0  0  0  0  0  0  0  0  0
    9.0243   -2.4985   -2.0640 C   0  0  0  0  0  0  0  0  0  0  0  0
    8.2446   -1.5348   -1.4341 C   0  0  0  0  0  0  0  0  0  0  0  0
    7.9908   -1.5375    0.0159 C   0  0  0  0  0  0  0  0  0  0  0  0
    7.2483   -0.5905    0.5373 N   0  0  0  0  0  0  0  0  0  0  0  0
    8.5689   -2.5897    0.8729 C   0  0  0  0  0  0  0  0  0  0  0  0
    9.2594   -3.4611    0.3828 O   0  0  0  0  0  0  0  0  0  0  0  0
    2.1865    1.0951    3.7350 C   0  0  0  0  0  0  0  0  0  0  0  0
    1.5452    1.6897    4.9905 C   0  0  0  0  0  0  0  0  0  0  0  0
    2.0949   -0.4311    3.7895 C   0  0  0  0  0  0  0  0  0  0  0  0
   -0.2186    1.2653   -2.1375 H   0  0  0  0  0  0  0  0  0  0  0  0
   -1.7550    1.2295   -1.2395 H   0  0  0  0  0  0  0  0  0  0  0  0
   -0.7521    2.7000   -1.2290 H   0  0  0  0  0  0  0  0  0  0  0  0
   -0.7386    2.6729    1.2693 H   0  0  0  0  0  0  0  0  0  0  0  0
   -1.7415    1.2024    1.2587 H   0  0  0  0  0  0  0  0  0  0  0  0
    0.0348   -0.0178    2.4853 H   0  0  0  0  0  0  0  0  0  0  0  0
   -0.4987    1.4168    3.3937 H   0  0  0  0  0  0  0  0  0  0  0  0
    1.9516    1.2885   -0.8997 H   0  0  0  0  0  0  0  0  0  0  0  0
    1.4181    2.7232    0.0088 H   0  0  0  0  0  0  0  0  0  0  0  0
    5.9544    2.2999    0.0678 H   0  0  0  0  0  0  0  0  0  0  0  0
    6.2735    1.4494    1.5985 H   0  0  0  0  0  0  0  0  0  0  0  0
    7.4218    0.3471   -4.1577 H   0  0  0  0  0  0  0  0  0  0  0  0
    8.8045   -1.3717   -5.2420 H   0  0  0  0  0  0  0  0  0  0  0  0
    9.8218   -3.1747   -3.9203 H   0  0  0  0  0  0  0  0  0  0  0  0
    9.4754   -3.2947   -1.4904 H   0  0  0  0  0  0  0  0  0  0  0  0
    3.2333    1.3948    3.6850 H   0  0  0  0  0  0  0  0  0  0  0  0
    0.5263    1.3156    5.0899 H   0  0  0  0  0  0  0  0  0  0  0  0
    2.1256    1.4005    5.8666 H   0  0  0  0  0  0  0  0  0  0  0  0
    1.5270    2.7765    4.9093 H   0  0  0  0  0  0  0  0  0  0  0  0
    1.0481   -0.7308    3.8394 H   0  0  0  0  0  0  0  0  0  0  0  0
    2.5518   -0.8547    2.8951 H   0  0  0  0  0  0  0  0  0  0  0  0
    2.6197   -0.7953    4.6727 H   0  0  0  0  0  0  0  0  0  0  0  0
    8.3313   -2.5845    2.1994 O   0  5  0  0  0  0  0  0  0  0  0  0
  1  2  1  0  0  0  0
  1 31  1  0  0  0  0
  1 32  1  0  0  0  0
  1 33  1  0  0  0  0
  2  3  1  0  0  0  0
  2 10  1  0  0  0  0
  2  4  1  0  0  0  0
  4  5  1  0  0  0  0
  4 34  1  0  0  0  0
  4 35  1  0  0  0  0
  5  6  1  0  0  0  0
  5 36  1  0  0  0  0
  5 37  1  0  0  0  0
  6  7  1  0  0  0  0
  6  8  1  0  0  0  0
  6 28  1  0  0  0  0
  8  9  1  0  0  0  0
  8 10  1  0  0  0  0
  8 11  1  0  0  0  0
 10 38  1  0  0  0  0
 10 39  1  0  0  0  0
 11 12  1  0  0  0  0
 12 13  2  0  0  0  0
 12 14  1  0  0  0  0
 14 15  1  0  0  0  0
 14 40  1  0  0  0  0
 14 41  1  0  0  0  0
 15 25  1  0  0  0  0
 15 16  1  0  0  0  0
 16 17  2  0  0  0  0
 16 18  1  0  0  0  0
 18 23  2  0  0  0  0
 18 19  1  0  0  0  0
 19 20  2  0  0  0  0
 19 42  1  0  0  0  0
 20 21  1  0  0  0  0
 20 43  1  0  0  0  0
 21 22  2  0  0  0  0
 21 44  1  0  0  0  0
 22 23  1  0  0  0  0
 22 45  1  0  0  0  0
 23 24  1  0  0  0  0
 24 25  2  0  0  0  0
 24 26  1  0  0  0  0
 26 27  2  0  0  0  0
 26 53  1  0  0  0  0
 28 29  1  0  0  0  0
 28 30  1  0  0  0  0
 28 46  1  0  0  0  0
 29 47  1  0  0  0  0
 29 48  1  0  0  0  0
 29 49  1  0  0  0  0
 30 50  1  0  0  0  0
 30 51  1  0  0  0  0
 30 52  1  0  0  0  0
M  CHG  1  53  -1
M  END
$$$$
ZINC03323641
  -OEChem-08230709463D

 53 55  0     0  0  0  0  0  0999 V2000
    2.4931    1.4555   -0.0132 C   0  0  0  0  0  0  0  0  0  0  0  0
    1.0519    1.8956    0.0022 C   0  0  0  0  0  0  0  0  0  0  0  0
   -0.0126    1.0758    0.0080 C   0  0  0  0  0  0  0  0  0  0  0  0
   -1.2003    1.9402    0.0175 C   0  0  0  0  0  0  0  0  0  0  0  0
   -0.7237    3.2376    0.0264 C   0  0  0  0  0  0  0  0  0  0  0  0
    0.6203    3.1904    0.0133 N   0  0  0  0  0  0  0  0  0  0  0  0
    1.4975    4.3637    0.0112 C   0  0  0  0  0  0  0  0  0  0  0  0
    1.7887    4.7803   -1.4319 C   0  0  0  0  0  0  0  0  0  0  0  0
    2.7049    6.0056   -1.4341 C   0  0  0  0  0  0  0  0  0  0  0  0
    4.0633    5.6278   -0.8400 C   0  0  0  0  0  0  0  0  0  0  0  0
    2.8954    6.4975   -2.8703 C   0  0  0  0  0  0  0  0  0  0  0  0
   -1.5644    4.4882    0.0411 C   0  0  0  0  0  0  0  0  0  0  0  0
   -2.6016    1.5146    0.0205 C   0  0  0  0  0  0  0  0  0  0  0  0
   -3.4875    2.3438    0.0282 O   0  0  0  0  0  0  0  0  0  0  0  0
   -2.9434    0.0469    0.0140 C   0  0  0  0  0  0  0  0  0  0  0  0
   -4.3994   -0.1156    0.0186 N   0  0  0  0  0  0  0  0  0  0  0  0
   -5.0387   -0.1745   -1.1677 C   0  0  0  0  0  0  0  0  0  0  0  0
   -4.4203   -0.0947   -2.2132 O   0  0  0  0  0  0  0  0  0  0  0  0
   -6.4987   -0.3419   -1.1688 C   0  0  0  0  0  0  0  0  0  0  0  0
   -7.2498   -0.4185   -2.3374 C   0  0  0  0  0  0  0  0  0  0  0  0
   -8.6174   -0.5710   -2.2527 C   0  0  0  0  0  0  0  0  0  0  0  0
   -9.2478   -0.6484   -1.0178 C   0  0  0  0  0  0  0  0  0  0  0  0
   -8.5212   -0.5741    0.1517 C   0  0  0  0  0  0  0  0  0  0  0  0
   -7.1406   -0.4207    0.0888 C   0  0  0  0  0  0  0  0  0  0  0  0
   -6.2924   -0.3336    1.2888 C   0  0  0  0  0  0  0  0  0  0  0  0
   -4.9967   -0.1887    1.1475 N   0  0  0  0  0  0  0  0  0  0  0  0
   -6.8927   -0.4087    2.6341 C   0  0  0  0  0  0  0  0  0  0  0  0
   -8.0940   -0.5430    2.7566 O   0  0  0  0  0  0  0  0  0  0  0  0
    2.8313    1.3548   -1.0445 H   0  0  0  0  0  0  0  0  0  0  0  0
    3.1052    2.1978    0.4991 H   0  0  0  0  0  0  0  0  0  0  0  0
    2.5853    0.4955    0.4948 H   0  0  0  0  0  0  0  0  0  0  0  0
    0.0021   -0.0041    0.0020 H   0  0  0  0  0  0  0  0  0  0  0  0
    1.0075    5.1847    0.5346 H   0  0  0  0  0  0  0  0  0  0  0  0
    2.4329    4.1189    0.5144 H   0  0  0  0  0  0  0  0  0  0  0  0
    2.2787    3.9593   -1.9553 H   0  0  0  0  0  0  0  0  0  0  0  0
    0.8533    5.0251   -1.9351 H   0  0  0  0  0  0  0  0  0  0  0  0
    2.2542    6.7974   -0.8357 H   0  0  0  0  0  0  0  0  0  0  0  0
    3.9276    5.2774    0.1832 H   0  0  0  0  0  0  0  0  0  0  0  0
    4.5140    4.8360   -1.4384 H   0  0  0  0  0  0  0  0  0  0  0  0
    4.7160    6.5007   -0.8415 H   0  0  0  0  0  0  0  0  0  0  0  0
    1.9277    6.7666   -3.2935 H   0  0  0  0  0  0  0  0  0  0  0  0
    3.5481    7.3704   -2.8718 H   0  0  0  0  0  0  0  0  0  0  0  0
    3.3461    5.7057   -3.4687 H   0  0  0  0  0  0  0  0  0  0  0  0
   -1.7769    4.7953   -0.9829 H   0  0  0  0  0  0  0  0  0  0  0  0
   -2.5008    4.2904    0.5629 H   0  0  0  0  0  0  0  0  0  0  0  0
   -1.0236    5.2835    0.5541 H   0  0  0  0  0  0  0  0  0  0  0  0
   -2.5630   -0.3803   -0.8062 H   0  0  0  0  0  0  0  0  0  0  0  0
   -2.5220   -0.4283    0.8999 H   0  0  0  0  0  0  0  0  0  0  0  0
   -6.7662   -0.3594   -3.3013 H   0  0  0  0  0  0  0  0  0  0  0  0
   -9.2049   -0.6313   -3.1569 H   0  0  0  0  0  0  0  0  0  0  0  0
  -10.3202   -0.7679   -0.9729 H   0  0  0  0  0  0  0  0  0  0  0  0
   -9.0196   -0.6356    1.1078 H   0  0  0  0  0  0  0  0  0  0  0  0
   -6.1087   -0.3285    3.7272 O   0  5  0  0  0  0  0  0  0  0  0  0
  1  2  1  0  0  0  0
  1 29  1  0  0  0  0
  1 30  1  0  0  0  0
  1 31  1  0  0  0  0
  2  6  1  0  0  0  0
  2  3  2  0  0  0  0
  3  4  1  0  0  0  0
  3 32  1  0  0  0  0
  4  5  2  0  0  0  0
  4 13  1  0  0  0  0
  5  6  1  0  0  0  0
  5 12  1  0  0  0  0
  6  7  1  0  0  0  0
  7  8  1  0  0  0  0
  7 33  1  0  0  0  0
  7 34  1  0  0  0  0
  8  9  1  0  0  0  0
  8 35  1  0  0  0  0
  8 36  1  0  0  0  0
  9 10  1  0  0  0  0
  9 11  1  0  0  0  0
  9 37  1  0  0  0  0
 10 38  1  0  0  0  0
 10 39  1  0  0  0  0
 10 40  1  0  0  0  0
 11 41  1  0  0  0  0
 11 42  1  0  0  0  0
 11 43  1  0  0  0  0
 12 44  1  0  0  0  0
 12 45  1  0  0  0  0
 12 46  1  0  0  0  0
 13 14  2  0  0  0  0
 13 15  1  0  0  0  0
 15 16  1  0  0  0  0
 15 47  1  0  0  0  0
 15 48  1  0  0  0  0
 16 26  1  0  0  0  0
 16 17  1  0  0  0  0
 17 18  2  0  0  0  0
 17 19  1  0  0  0  0
 19 24  2  0  0  0  0
 19 20  1  0  0  0  0
 20 21  2  0  0  0  0
 20 49  1  0  0  0  0
 21 22  1  0  0  0  0
 21 50  1  0  0  0  0
 22 23  2  0  0  0  0
 22 51  1  0  0  0  0
 23 24  1  0  0  0  0
 23 52  1  0  0  0  0
 24 25  1  0  0  0  0
 25 26  2  0  0  0  0
 25 27  1  0  0  0  0
 27 28  2  0  0  0  0
 27 53  1  0  0  0  0
M  CHG  1  53  -1
M  END
$$$$
ZINC03323739
  -OEChem-08230709463D

 48 50  0     0  0  0  0  0  0999 V2000
   -0.4067   -6.3037   -6.2626 C   0  0  0  0  0  0  0  0  0  0  0  0
   -1.3717   -5.4820   -5.4473 C   0  0  0  0  0  0  0  0  0  0  0  0
   -0.9900   -4.9927   -4.2128 C   0  0  0  0  0  0  0  0  0  0  0  0
   -1.8785   -4.2361   -3.4631 C   0  0  0  0  0  0  0  0  0  0  0  0
   -3.1507   -3.9774   -3.9526 C   0  0  0  0  0  0  0  0  0  0  0  0
   -3.5254   -4.4636   -5.1900 C   0  0  0  0  0  0  0  0  0  0  0  0
   -2.6379   -5.2181   -5.9353 C   0  0  0  0  0  0  0  0  0  0  0  0
   -3.0516   -5.7530   -7.2821 C   0  0  0  0  0  0  0  0  0  0  0  0
   -4.3495   -6.5502   -7.1374 C   0  0  0  0  0  0  0  0  0  0  0  0
   -3.2741   -4.5871   -8.2475 C   0  0  0  0  0  0  0  0  0  0  0  0
   -1.5054   -3.7536   -2.2486 O   0  0  0  0  0  0  0  0  0  0  0  0
   -2.4718   -2.9824   -1.5321 C   0  0  0  0  0  0  0  0  0  0  0  0
   -1.8751   -2.5291   -0.1981 C   0  0  0  0  0  0  0  0  0  0  0  0
   -0.7581   -1.6149   -0.4483 N   0  0  0  0  0  0  0  0  0  0  0  0
   -1.0209   -0.2948   -0.5354 C   0  0  0  0  0  0  0  0  0  0  0  0
   -2.1570    0.1237   -0.4086 O   0  0  0  0  0  0  0  0  0  0  0  0
    0.0960    0.6266   -0.7862 C   0  0  0  0  0  0  0  0  0  0  0  0
   -0.0698    2.0038   -0.8934 C   0  0  0  0  0  0  0  0  0  0  0  0
    1.0303    2.8003   -1.1304 C   0  0  0  0  0  0  0  0  0  0  0  0
    2.2953    2.2426   -1.2622 C   0  0  0  0  0  0  0  0  0  0  0  0
    2.4803    0.8800   -1.1593 C   0  0  0  0  0  0  0  0  0  0  0  0
    1.3840    0.0585   -0.9205 C   0  0  0  0  0  0  0  0  0  0  0  0
    1.4954   -1.4041   -0.7978 C   0  0  0  0  0  0  0  0  0  0  0  0
    0.4144   -2.1115   -0.5725 N   0  0  0  0  0  0  0  0  0  0  0  0
    2.8072   -2.0662   -0.9271 C   0  0  0  0  0  0  0  0  0  0  0  0
    3.8040   -1.4038   -1.1362 O   0  0  0  0  0  0  0  0  0  0  0  0
   -0.5920   -7.3631   -6.0857 H   0  0  0  0  0  0  0  0  0  0  0  0
   -0.5451   -6.0824   -7.3209 H   0  0  0  0  0  0  0  0  0  0  0  0
    0.6148   -6.0598   -5.9710 H   0  0  0  0  0  0  0  0  0  0  0  0
   -0.0008   -5.1994   -3.8319 H   0  0  0  0  0  0  0  0  0  0  0  0
   -3.8460   -3.3926   -3.3686 H   0  0  0  0  0  0  0  0  0  0  0  0
   -4.5139   -4.2585   -5.5736 H   0  0  0  0  0  0  0  0  0  0  0  0
   -2.2677   -6.4026   -7.6714 H   0  0  0  0  0  0  0  0  0  0  0  0
   -4.1910   -7.3808   -6.4496 H   0  0  0  0  0  0  0  0  0  0  0  0
   -5.1334   -5.9005   -6.7481 H   0  0  0  0  0  0  0  0  0  0  0  0
   -4.6487   -6.9371   -8.1115 H   0  0  0  0  0  0  0  0  0  0  0  0
   -2.3495   -4.0192   -8.3506 H   0  0  0  0  0  0  0  0  0  0  0  0
   -3.5733   -4.9740   -9.2216 H   0  0  0  0  0  0  0  0  0  0  0  0
   -4.0580   -3.9375   -7.8582 H   0  0  0  0  0  0  0  0  0  0  0  0
   -3.3568   -3.5909   -1.3462 H   0  0  0  0  0  0  0  0  0  0  0  0
   -2.7489   -2.1086   -2.1218 H   0  0  0  0  0  0  0  0  0  0  0  0
   -1.5169   -3.3982    0.3537 H   0  0  0  0  0  0  0  0  0  0  0  0
   -2.6395   -2.0173    0.3865 H   0  0  0  0  0  0  0  0  0  0  0  0
   -1.0511    2.4442   -0.7963 H   0  0  0  0  0  0  0  0  0  0  0  0
    0.9070    3.8700   -1.2144 H   0  0  0  0  0  0  0  0  0  0  0  0
    3.1443    2.8837   -1.4476 H   0  0  0  0  0  0  0  0  0  0  0  0
    3.4676    0.4548   -1.2628 H   0  0  0  0  0  0  0  0  0  0  0  0
    2.8999   -3.4059   -0.8133 O   0  5  0  0  0  0  0  0  0  0  0  0
  1  2  1  0  0  0  0
  1 27  1  0  0  0  0
  1 28  1  0  0  0  0
  1 29  1  0  0  0  0
  2  7  2  0  0  0  0
  2  3  1  0  0  0  0
  3  4  2  0  0  0  0
  3 30  1  0  0  0  0
  4  5  1  0  0  0  0
  4 11  1  0  0  0  0
  5  6  2  0  0  0  0
  5 31  1  0  0  0  0
  6  7  1  0  0  0  0
  6 32  1  0  0  0  0
  7  8  1  0  0  0  0
  8  9  1  0  0  0  0
  8 10  1  0  0  0  0
  8 33  1  0  0  0  0
  9 34  1  0  0  0  0
  9 35  1  0  0  0  0
  9 36  1  0  0  0  0
 10 37  1  0  0  0  0
 10 38  1  0  0  0  0
 10 39  1  0  0  0  0
 11 12  1  0  0  0  0
 12 13  1  0  0  0  0
 12 40  1  0  0  0  0
 12 41  1  0  0  0  0
 13 14  1  0  0  0  0
 13 42  1  0  0  0  0
 13 43  1  0  0  0  0
 14 24  1  0  0  0  0
 14 15  1  0  0  0  0
 15 16  2  0  0  0  0
 15 17  1  0  0  0  0
 17 22  2  0  0  0  0
 17 18  1  0  0  0  0
 18 19  2  0  0  0  0
 18 44  1  0  0  0  0
 19 20  1  0  0  0  0
 19 45  1  0  0  0  0
 20 21  2  0  0  0  0
 20 46  1  0  0  0  0
 21 22  1  0  0  0  0
 21 47  1  0  0  0  0
 22 23  1  0  0  0  0
 23 24  2  0  0  0  0
 23 25  1  0  0  0  0
 25 26  2  0  0  0  0
 25 48  1  0  0  0  0
M  CHG  1  48  -1
M  END
$$$$
ZINC03585122
  -OEChem-08230709463D

 53 55  0     0  0  0  0  0  0999 V2000
   -2.3862    7.4002   -1.3575 C   0  0  0  0  0  0  0  0  0  0  0  0
   -2.3301    5.8712   -1.3661 C   0  0  0  0  0  0  0  0  0  0  0  0
   -2.5466    5.3449    0.0541 C   0  0  0  0  0  0  0  0  0  0  0  0
   -2.4914    3.8390    0.0456 C   0  0  0  0  0  0  0  0  0  0  0  0
   -3.6321    3.1005    0.0552 C   0  0  0  0  0  0  0  0  0  0  0  0
   -3.5523    1.6952    0.0473 C   0  0  0  0  0  0  0  0  0  0  0  0
   -4.5834    1.0467    0.0563 O   0  0  0  0  0  0  0  0  0  0  0  0
   -2.3808    1.0480    0.0307 O   0  0  0  0  0  0  0  0  0  0  0  0
   -1.2277    1.7486    0.0161 C   0  0  0  0  0  0  0  0  0  0  0  0
   -1.2466    3.1571    0.0280 C   0  0  0  0  0  0  0  0  0  0  0  0
   -0.0416    3.8721    0.0177 C   0  0  0  0  0  0  0  0  0  0  0  0
    1.1707    3.1787    0.0027 C   0  0  0  0  0  0  0  0  0  0  0  0
    1.1802    1.7793   -0.0037 C   0  0  0  0  0  0  0  0  0  0  0  0
   -0.0126    1.0758    0.0053 C   0  0  0  0  0  0  0  0  0  0  0  0
    2.3605    1.1103   -0.0191 O   0  0  0  0  0  0  0  0  0  0  0  0
    2.2971   -0.3173   -0.0254 C   0  0  0  0  0  0  0  0  0  0  0  0
    3.7155   -0.8907   -0.0428 C   0  0  0  0  0  0  0  0  0  0  0  0
    4.4456   -0.4071   -1.2974 C   0  0  0  0  0  0  0  0  0  0  0  0
    4.4715   -0.4192    1.2009 C   0  0  0  0  0  0  0  0  0  0  0  0
    3.6486   -2.3962   -0.0494 C   0  0  0  0  0  0  0  0  0  0  0  0
    2.5765   -2.9533   -0.0410 O   0  0  0  0  0  0  0  0  0  0  0  0
    2.4268    3.9580   -0.0055 C   0  0  0  0  0  0  0  0  0  0  0  0
    2.3682    5.2450    0.3326 C   0  0  0  0  0  0  0  0  0  0  0  0
    1.0497    5.8611    0.7204 C   0  0  0  0  0  0  0  0  0  0  0  0
   -0.0230    5.2271    0.0223 O   0  0  0  0  0  0  0  0  0  0  0  0
    1.0669    7.3515    0.3750 C   0  0  0  0  0  0  0  0  0  0  0  0
    0.8417    5.6936    2.2269 C   0  0  0  0  0  0  0  0  0  0  0  0
   -2.2320    7.7751   -2.3693 H   0  0  0  0  0  0  0  0  0  0  0  0
   -3.3608    7.7259   -0.9940 H   0  0  0  0  0  0  0  0  0  0  0  0
   -1.6058    7.7887   -0.7032 H   0  0  0  0  0  0  0  0  0  0  0  0
   -1.3555    5.5454   -1.7297 H   0  0  0  0  0  0  0  0  0  0  0  0
   -3.1105    5.4827   -2.0205 H   0  0  0  0  0  0  0  0  0  0  0  0
   -3.5212    5.6707    0.4177 H   0  0  0  0  0  0  0  0  0  0  0  0
   -1.7663    5.7335    0.7084 H   0  0  0  0  0  0  0  0  0  0  0  0
   -4.5950    3.5893    0.0685 H   0  0  0  0  0  0  0  0  0  0  0  0
    0.0020   -0.0041   -0.0006 H   0  0  0  0  0  0  0  0  0  0  0  0
    1.7769   -0.6617    0.8684 H   0  0  0  0  0  0  0  0  0  0  0  0
    1.7584   -0.6532   -0.9114 H   0  0  0  0  0  0  0  0  0  0  0  0
    4.4940    0.6818   -1.2926 H   0  0  0  0  0  0  0  0  0  0  0  0
    5.4561   -0.8157   -1.3098 H   0  0  0  0  0  0  0  0  0  0  0  0
    3.9070   -0.7430   -2.1835 H   0  0  0  0  0  0  0  0  0  0  0  0
    3.9513   -0.7637    2.0947 H   0  0  0  0  0  0  0  0  0  0  0  0
    5.4820   -0.8277    1.1885 H   0  0  0  0  0  0  0  0  0  0  0  0
    4.5199    0.6697    1.2057 H   0  0  0  0  0  0  0  0  0  0  0  0
    3.3649    3.4971   -0.2774 H   0  0  0  0  0  0  0  0  0  0  0  0
    3.2654    5.8462    0.3286 H   0  0  0  0  0  0  0  0  0  0  0  0
    0.1207    7.8041    0.6714 H   0  0  0  0  0  0  0  0  0  0  0  0
    1.8847    7.8383    0.9064 H   0  0  0  0  0  0  0  0  0  0  0  0
    1.2077    7.4740   -0.6989 H   0  0  0  0  0  0  0  0  0  0  0  0
    0.8216    4.6324    2.4751 H   0  0  0  0  0  0  0  0  0  0  0  0
    1.6590    6.1766    2.7625 H   0  0  0  0  0  0  0  0  0  0  0  0
   -0.1037    6.1524    2.5164 H   0  0  0  0  0  0  0  0  0  0  0  0
    4.7800   -3.1182   -0.0646 O   0  5  0  0  0  0  0  0  0  0  0  0
  1  2  1  0  0  0  0
  1 28  1  0  0  0  0
  1 29  1  0  0  0  0
  1 30  1  0  0  0  0
  2  3  1  0  0  0  0
  2 31  1  0  0  0  0
  2 32  1  0  0  0  0
  3  4  1  0  0  0  0
  3 33  1  0  0  0  0
  3 34  1  0  0  0  0
  4 10  1  0  0  0  0
  4  5  2  0  0  0  0
  5  6  1  0  0  0  0
  5 35  1  0  0  0  0
  6  7  2  0  0  0  0
  6  8  1  0  0  0  0
  8  9  1  0  0  0  0
  9 14  2  0  0  0  0
  9 10  1  0  0  0  0
 10 11  2  0  0  0  0
 11 25  1  0  0  0  0
 11 12  1  0  0  0  0
 12 13  2  0  0  0  0
 12 22  1  0  0  0  0
 13 14  1  0  0  0  0
 13 15  1  0  0  0  0
 14 36  1  0  0  0  0
 15 16  1  0  0  0  0
 16 17  1  0  0  0  0
 16 37  1  0  0  0  0
 16 38  1  0  0  0  0
 17 18  1  0  0  0  0
 17 19  1  0  0  0  0
 17 20  1  0  0  0  0
 18 39  1  0  0  0  0
 18 40  1  0  0  0  0
 18 41  1  0  0  0  0
 19 42  1  0  0  0  0
 19 43  1  0  0  0  0
 19 44  1  0  0  0  0
 20 21  2  0  0  0  0
 20 53  1  0  0  0  0
 22 23  2  0  0  0  0
 22 45  1  0  0  0  0
 23 24  1  0  0  0  0
 23 46  1  0  0  0  0
 24 25  1  0  0  0  0
 24 26  1  0  0  0  0
 24 27  1  0  0  0  0
 26 47  1  0  0  0  0
 26 48  1  0  0  0  0
 26 49  1  0  0  0  0
 27 50  1  0  0  0  0
 27 51  1  0  0  0  0
 27 52  1  0  0  0  0
M  CHG  1  53  -1
M  END
$$$$
ZINC03601625
  -OEChem-08230709463D

 50 52  0     0  0  0  0  0  0999 V2000
    9.5733    5.5669   -0.0316 C   0  0  0  0  0  0  0  0  0  0  0  0
    8.6061    4.3814   -0.0367 C   0  0  0  0  0  0  0  0  0  0  0  0
    7.1661    4.8980   -0.0200 C   0  0  0  0  0  0  0  0  0  0  0  0
    6.1989    3.7125   -0.0250 C   0  0  0  0  0  0  0  0  0  0  0  0
    4.8200    4.2071   -0.0090 N   0  0  0  0  0  0  0  0  0  0  0  0
    3.7916    3.3360   -0.0103 C   0  0  0  0  0  0  0  0  0  0  0  0
    4.0081    2.1400   -0.0247 O   0  0  0  0  0  0  0  0  0  0  0  0
    2.4004    3.8351    0.0059 C   0  0  0  0  0  0  0  0  0  0  0  0
    1.9949    5.1846    0.0209 C   0  0  0  0  0  0  0  0  0  0  0  0
    0.6319    5.1971    0.0442 C   0  0  0  0  0  0  0  0  0  0  0  0
    0.1713    3.8995    0.0214 N   0  0  0  0  0  0  0  0  0  0  0  0
    1.2393    3.0577    0.0066 C   0  0  0  0  0  0  0  0  0  0  0  0
    1.1824    1.5915   -0.0007 C   0  0  0  0  0  0  0  0  0  0  0  0
    2.2110    0.9432   -0.0140 O   0  0  0  0  0  0  0  0  0  0  0  0
   -1.2590    3.5804   -0.0026 C   0  0  0  0  0  0  0  0  0  0  0  0
   -2.0433    4.6264    0.7856 C   0  0  0  0  0  0  0  0  0  0  0  0
   -1.6440    6.0311    0.4268 C   0  0  0  0  0  0  0  0  0  0  0  0
   -0.3139    6.3297    0.1005 C   0  0  0  0  0  0  0  0  0  0  0  0
    0.0823    7.6393   -0.1335 C   0  0  0  0  0  0  0  0  0  0  0  0
   -0.8573    8.6557   -0.0883 C   0  0  0  0  0  0  0  0  0  0  0  0
   -2.1875    8.3558    0.1976 C   0  0  0  0  0  0  0  0  0  0  0  0
   -2.5749    7.0488    0.4544 C   0  0  0  0  0  0  0  0  0  0  0  0
   -3.1126    9.3512    0.2246 O   0  0  0  0  0  0  0  0  0  0  0  0
   -4.4590    8.9776    0.5240 C   0  0  0  0  0  0  0  0  0  0  0  0
   -0.4828    9.9421   -0.3217 O   0  0  0  0  0  0  0  0  0  0  0  0
    0.8979   10.1741   -0.6079 C   0  0  0  0  0  0  0  0  0  0  0  0
    9.3979    6.1826   -0.9138 H   0  0  0  0  0  0  0  0  0  0  0  0
    9.4118    6.1637    0.8660 H   0  0  0  0  0  0  0  0  0  0  0  0
   10.5992    5.1989   -0.0435 H   0  0  0  0  0  0  0  0  0  0  0  0
    8.7815    3.7656    0.8455 H   0  0  0  0  0  0  0  0  0  0  0  0
    8.7677    3.7845   -0.9343 H   0  0  0  0  0  0  0  0  0  0  0  0
    6.9907    5.5137   -0.9021 H   0  0  0  0  0  0  0  0  0  0  0  0
    7.0046    5.4948    0.8777 H   0  0  0  0  0  0  0  0  0  0  0  0
    6.3743    3.0967    0.8571 H   0  0  0  0  0  0  0  0  0  0  0  0
    6.3604    3.1156   -0.9227 H   0  0  0  0  0  0  0  0  0  0  0  0
    4.6472    5.1615    0.0024 H   0  0  0  0  0  0  0  0  0  0  0  0
    2.6434    6.0482    0.0191 H   0  0  0  0  0  0  0  0  0  0  0  0
   -1.6093    3.5678   -1.0347 H   0  0  0  0  0  0  0  0  0  0  0  0
   -1.4177    2.5983    0.4429 H   0  0  0  0  0  0  0  0  0  0  0  0
   -1.8687    4.4706    1.8501 H   0  0  0  0  0  0  0  0  0  0  0  0
   -3.1060    4.4979    0.5799 H   0  0  0  0  0  0  0  0  0  0  0  0
    1.1165    7.8642   -0.3490 H   0  0  0  0  0  0  0  0  0  0  0  0
   -3.6082    6.8275    0.6774 H   0  0  0  0  0  0  0  0  0  0  0  0
   -4.8140    8.2681   -0.2235 H   0  0  0  0  0  0  0  0  0  0  0  0
   -4.4971    8.5156    1.5105 H   0  0  0  0  0  0  0  0  0  0  0  0
   -5.0930    9.8642    0.5134 H   0  0  0  0  0  0  0  0  0  0  0  0
    1.5045    9.8406    0.2341 H   0  0  0  0  0  0  0  0  0  0  0  0
    1.1817    9.6195   -1.5023 H   0  0  0  0  0  0  0  0  0  0  0  0
    1.0606   11.2390   -0.7738 H   0  0  0  0  0  0  0  0  0  0  0  0
   -0.0110    0.9628    0.0073 O   0  5  0  0  0  0  0  0  0  0  0  0
  1  2  1  0  0  0  0
  1 27  1  0  0  0  0
  1 28  1  0  0  0  0
  1 29  1  0  0  0  0
  2  3  1  0  0  0  0
  2 30  1  0  0  0  0
  2 31  1  0  0  0  0
  3  4  1  0  0  0  0
  3 32  1  0  0  0  0
  3 33  1  0  0  0  0
  4  5  1  0  0  0  0
  4 34  1  0  0  0  0
  4 35  1  0  0  0  0
  5  6  1  0  0  0  0
  5 36  1  0  0  0  0
  6  7  2  0  0  0  0
  6  8  1  0  0  0  0
  8 12  2  0  0  0  0
  8  9  1  0  0  0  0
  9 10  2  0  0  0  0
  9 37  1  0  0  0  0
 10 18  1  0  0  0  0
 10 11  1  0  0  0  0
 11 12  1  0  0  0  0
 11 15  1  0  0  0  0
 12 13  1  0  0  0  0
 13 14  2  0  0  0  0
 13 50  1  0  0  0  0
 15 16  1  0  0  0  0
 15 38  1  0  0  0  0
 15 39  1  0  0  0  0
 16 17  1  0  0  0  0
 16 40  1  0  0  0  0
 16 41  1  0  0  0  0
 17 22  2  0  0  0  0
 17 18  1  0  0  0  0
 18 19  2  0  0  0  0
 19 20  1  0  0  0  0
 19 42  1  0  0  0  0
 20 21  2  0  0  0  0
 20 25  1  0  0  0  0
 21 22  1  0  0  0  0
 21 23  1  0  0  0  0
 22 43  1  0  0  0  0
 23 24  1  0  0  0  0
 24 44  1  0  0  0  0
 24 45  1  0  0  0  0
 24 46  1  0  0  0  0
 25 26  1  0  0  0  0
 26 47  1  0  0  0  0
 26 48  1  0  0  0  0
 26 49  1  0  0  0  0
M  CHG  1  50  -1
M  END
$$$$
ZINC03612388
  -OEChem-08230709463D

 50 53  0     0  0  0  0  0  0999 V2000
   -0.0176    1.4478    0.0100 C   0  0  0  0  0  0  0  0  0  0  0  0
    0.0021   -0.0041    0.0020 O   0  0  0  0  0  0  0  0  0  0  0  0
   -1.1904   -0.6322    0.0100 C   0  0  0  0  0  0  0  0  0  0  0  0
   -2.2184    0.0157    0.0233 O   0  0  0  0  0  0  0  0  0  0  0  0
   -1.2475   -2.1045    0.0027 C   0  0  0  0  0  0  0  0  0  0  0  0
   -0.0587   -2.8499   -0.0185 C   0  0  0  0  0  0  0  0  0  0  0  0
   -0.0983   -4.2101   -0.0189 C   0  0  0  0  0  0  0  0  0  0  0  0
   -1.3326   -4.8765   -0.0114 C   0  0  0  0  0  0  0  0  0  0  0  0
   -2.5324   -4.1358    0.0040 C   0  0  0  0  0  0  0  0  0  0  0  0
   -2.4831   -2.7518    0.0110 C   0  0  0  0  0  0  0  0  0  0  0  0
   -3.5735   -5.0433    0.0091 N   0  0  0  0  0  0  0  0  0  0  0  0
   -3.0518   -6.3146   -0.0027 C   0  0  0  0  0  0  0  0  0  0  0  0
   -1.6958   -6.2442   -0.0152 C   0  0  0  0  0  0  0  0  0  0  0  0
   -0.7465   -7.4145   -0.0310 C   0  0  0  0  0  0  0  0  0  0  0  0
    0.1468   -7.3633    1.2101 C   0  0  0  0  0  0  0  0  0  0  0  0
    1.1106   -8.5515    1.1941 C   0  0  0  0  0  0  0  0  0  0  0  0
    1.9801   -8.4860   -0.0632 C   0  0  0  0  0  0  0  0  0  0  0  0
    1.0868   -8.5372   -1.3043 C   0  0  0  0  0  0  0  0  0  0  0  0
    0.1229   -7.3491   -1.2883 C   0  0  0  0  0  0  0  0  0  0  0  0
   -3.8432   -7.5635   -0.0026 C   0  0  0  0  0  0  0  0  0  0  0  0
   -5.0093   -7.8744    0.8343 C   0  0  0  0  0  0  0  0  0  0  0  0
   -5.3938   -9.1138    0.4884 C   0  0  0  0  0  0  0  0  0  0  0  0
   -4.5759   -9.5748   -0.4702 O   0  0  0  0  0  0  0  0  0  0  0  0
   -3.6459   -8.6615   -0.7821 C   0  0  0  0  0  0  0  0  0  0  0  0
   -4.9991   -4.7062    0.0245 C   0  0  0  0  0  0  0  0  0  0  0  0
   -5.5013   -4.5824   -1.3909 C   0  0  0  0  0  0  0  0  0  0  0  0
   -4.7459   -4.7578   -2.3175 O   0  0  0  0  0  0  0  0  0  0  0  0
    1.0050    1.8251    0.0023 H   0  0  0  0  0  0  0  0  0  0  0  0
   -0.5448    1.8089   -0.8731 H   0  0  0  0  0  0  0  0  0  0  0  0
   -0.5278    1.7993    0.9068 H   0  0  0  0  0  0  0  0  0  0  0  0
    0.8937   -2.3409   -0.0296 H   0  0  0  0  0  0  0  0  0  0  0  0
    0.8209   -4.7769   -0.0304 H   0  0  0  0  0  0  0  0  0  0  0  0
   -3.3969   -2.1763    0.0232 H   0  0  0  0  0  0  0  0  0  0  0  0
   -1.3157   -8.3441   -0.0309 H   0  0  0  0  0  0  0  0  0  0  0  0
    0.7160   -6.4337    1.2099 H   0  0  0  0  0  0  0  0  0  0  0  0
   -0.4726   -7.4100    2.1058 H   0  0  0  0  0  0  0  0  0  0  0  0
    0.5415   -9.4811    1.1942 H   0  0  0  0  0  0  0  0  0  0  0  0
    1.7471   -8.5150    2.0782 H   0  0  0  0  0  0  0  0  0  0  0  0
    2.6667   -9.3325   -0.0746 H   0  0  0  0  0  0  0  0  0  0  0  0
    2.5493   -7.5564   -0.0633 H   0  0  0  0  0  0  0  0  0  0  0  0
    0.5176   -9.4668   -1.3041 H   0  0  0  0  0  0  0  0  0  0  0  0
    1.7061   -8.4906   -2.2000 H   0  0  0  0  0  0  0  0  0  0  0  0
   -0.5135   -7.3855   -2.1724 H   0  0  0  0  0  0  0  0  0  0  0  0
    0.6921   -6.4195   -1.2884 H   0  0  0  0  0  0  0  0  0  0  0  0
   -5.4647   -7.2363    1.5771 H   0  0  0  0  0  0  0  0  0  0  0  0
   -6.2273   -9.6529    0.9137 H   0  0  0  0  0  0  0  0  0  0  0  0
   -2.8699   -8.7782   -1.5242 H   0  0  0  0  0  0  0  0  0  0  0  0
   -5.5526   -5.4917    0.5391 H   0  0  0  0  0  0  0  0  0  0  0  0
   -5.1430   -3.7595    0.5452 H   0  0  0  0  0  0  0  0  0  0  0  0
   -6.7878   -4.2774   -1.6223 O   0  5  0  0  0  0  0  0  0  0  0  0
  1  2  1  0  0  0  0
  1 28  1  0  0  0  0
  1 29  1  0  0  0  0
  1 30  1  0  0  0  0
  2  3  1  0  0  0  0
  3  4  2  0  0  0  0
  3  5  1  0  0  0  0
  5 10  2  0  0  0  0
  5  6  1  0  0  0  0
  6  7  2  0  0  0  0
  6 31  1  0  0  0  0
  7  8  1  0  0  0  0
  7 32  1  0  0  0  0
  8 13  1  0  0  0  0
  8  9  2  0  0  0  0
  9 10  1  0  0  0  0
  9 11  1  0  0  0  0
 10 33  1  0  0  0  0
 11 12  1  0  0  0  0
 11 25  1  0  0  0  0
 12 13  2  0  0  0  0
 12 20  1  0  0  0  0
 13 14  1  0  0  0  0
 14 19  1  0  0  0  0
 14 15  1  0  0  0  0
 14 34  1  0  0  0  0
 15 16  1  0  0  0  0
 15 35  1  0  0  0  0
 15 36  1  0  0  0  0
 16 17  1  0  0  0  0
 16 37  1  0  0  0  0
 16 38  1  0  0  0  0
 17 18  1  0  0  0  0
 17 39  1  0  0  0  0
 17 40  1  0  0  0  0
 18 19  1  0  0  0  0
 18 41  1  0  0  0  0
 18 42  1  0  0  0  0
 19 43  1  0  0  0  0
 19 44  1  0  0  0  0
 20 24  2  0  0  0  0
 20 21  1  0  0  0  0
 21 22  2  0  0  0  0
 21 45  1  0  0  0  0
 22 23  1  0  0  0  0
 22 46  1  0  0  0  0
 23 24  1  0  0  0  0
 24 47  1  0  0  0  0
 25 26  1  0  0  0  0
 25 48  1  0  0  0  0
 25 49  1  0  0  0  0
 26 27  2  0  0  0  0
 26 50  1  0  0  0  0
M  CHG  1  50  -1
M  END
$$$$
ZINC03616577
  -OEChem-08230709463D

 54 56  0     1  0  0  0  0  0999 V2000
    2.8690    2.8878   -6.1508 C   0  0  0  0  0  0  0  0  0  0  0  0
    2.3676    4.2400   -5.6399 C   0  0  0  0  0  0  0  0  0  0  0  0
    0.9225    4.4417   -6.0922 C   0  0  0  0  0  0  0  0  0  0  0  0
    0.3453    5.6543   -5.4098 C   0  0  0  0  0  0  0  0  0  0  0  0
   -0.5728    6.4589   -6.0453 C   0  0  0  0  0  0  0  0  0  0  0  0
   -1.0879    7.5707   -5.3922 C   0  0  0  0  0  0  0  0  0  0  0  0
   -0.6789    7.8751   -4.0951 C   0  0  0  0  0  0  0  0  0  0  0  0
    0.2438    7.0694   -3.4525 C   0  0  0  0  0  0  0  0  0  0  0  0
    0.7590    5.9550   -4.1093 C   0  0  0  0  0  0  0  0  0  0  0  0
    1.7467    5.0679   -3.4571 C   0  0  0  0  0  0  0  0  0  0  0  0
    1.8960    5.0854   -2.0872 N   0  0  0  0  0  0  0  0  0  0  0  0
    2.8756    4.2049   -1.4458 C   0  0  2  0  0  0  0  0  0  0  0  0
    2.9279    3.2620   -1.9902 H   0  0  0  0  0  0  0  0  0  0  0  0
    2.4510    3.9366   -0.0006 C   0  0  0  0  0  0  0  0  0  0  0  0
    1.1563    3.1654    0.0076 C   0  0  0  0  0  0  0  0  0  0  0  0
    1.1750    1.7832    0.0004 C   0  0  0  0  0  0  0  0  0  0  0  0
   -0.0126    1.0758    0.0080 C   0  0  0  0  0  0  0  0  0  0  0  0
   -1.2190    1.7506    0.0173 C   0  0  0  0  0  0  0  0  0  0  0  0
   -1.2377    3.1328    0.0299 C   0  0  0  0  0  0  0  0  0  0  0  0
   -0.0501    3.8402    0.0228 C   0  0  0  0  0  0  0  0  0  0  0  0
    4.2293    4.8671   -1.4569 C   0  0  0  0  0  0  0  0  0  0  0  0
    4.3621    5.9621   -1.9500 O   0  0  0  0  0  0  0  0  0  0  0  0
   -1.1870    8.9655   -3.4608 O   0  0  0  0  0  0  0  0  0  0  0  0
   -0.7238    9.2180   -2.1327 C   0  0  0  0  0  0  0  0  0  0  0  0
   -1.9943    8.3646   -6.0199 O   0  0  0  0  0  0  0  0  0  0  0  0
   -2.3704    7.9953   -7.3482 C   0  0  0  0  0  0  0  0  0  0  0  0
    3.2376    5.3515   -6.2304 C   0  0  0  0  0  0  0  0  0  0  0  0
    2.8199    2.8699   -7.2396 H   0  0  0  0  0  0  0  0  0  0  0  0
    3.9002    2.7382   -5.8311 H   0  0  0  0  0  0  0  0  0  0  0  0
    2.2439    2.0920   -5.7458 H   0  0  0  0  0  0  0  0  0  0  0  0
    0.3339    3.5626   -5.8296 H   0  0  0  0  0  0  0  0  0  0  0  0
    0.8971    4.5863   -7.1722 H   0  0  0  0  0  0  0  0  0  0  0  0
   -0.8919    6.2260   -7.0504 H   0  0  0  0  0  0  0  0  0  0  0  0
    0.5627    7.3032   -2.4474 H   0  0  0  0  0  0  0  0  0  0  0  0
    1.3524    5.6806   -1.5476 H   0  0  0  0  0  0  0  0  0  0  0  0
    2.3126    4.8845    0.5194 H   0  0  0  0  0  0  0  0  0  0  0  0
    3.2233    3.3553    0.5031 H   0  0  0  0  0  0  0  0  0  0  0  0
    2.1175    1.2560   -0.0115 H   0  0  0  0  0  0  0  0  0  0  0  0
    0.0021   -0.0041    0.0020 H   0  0  0  0  0  0  0  0  0  0  0  0
   -2.1469    1.1980    0.0188 H   0  0  0  0  0  0  0  0  0  0  0  0
   -2.1802    3.6600    0.0414 H   0  0  0  0  0  0  0  0  0  0  0  0
   -0.0647    4.9201    0.0288 H   0  0  0  0  0  0  0  0  0  0  0  0
   -1.2067   10.1145   -1.7438 H   0  0  0  0  0  0  0  0  0  0  0  0
   -0.9677    8.3682   -1.4952 H   0  0  0  0  0  0  0  0  0  0  0  0
    0.3563    9.3638   -2.1463 H   0  0  0  0  0  0  0  0  0  0  0  0
   -1.4884    7.9947   -7.9886 H   0  0  0  0  0  0  0  0  0  0  0  0
   -2.8120    6.9988   -7.3370 H   0  0  0  0  0  0  0  0  0  0  0  0
   -3.0977    8.7107   -7.7320 H   0  0  0  0  0  0  0  0  0  0  0  0
    2.8765    6.3193   -5.8824 H   0  0  0  0  0  0  0  0  0  0  0  0
    4.2705    5.2129   -5.9110 H   0  0  0  0  0  0  0  0  0  0  0  0
    3.1857    5.3142   -7.3185 H   0  0  0  0  0  0  0  0  0  0  0  0
    2.5328    4.2244   -4.1451 N   0  3  0  0  0  0  0  0  0  0  0  0
    3.2065    3.6057   -3.6786 H   0  0  0  0  0  0  0  0  0  0  0  0
    5.2874    4.2404   -0.9191 O   0  5  0  0  0  0  0  0  0  0  0  0
  1  2  1  0  0  0  0
  1 28  1  0  0  0  0
  1 29  1  0  0  0  0
  1 30  1  0  0  0  0
  2  3  1  0  0  0  0
  2 27  1  0  0  0  0
  2 52  1  0  0  0  0
  3  4  1  0  0  0  0
  3 31  1  0  0  0  0
  3 32  1  0  0  0  0
  4  9  2  0  0  0  0
  4  5  1  0  0  0  0
  5  6  2  0  0  0  0
  5 33  1  0  0  0  0
  6  7  1  0  0  0  0
  6 25  1  0  0  0  0
  7  8  2  0  0  0  0
  7 23  1  0  0  0  0
  8  9  1  0  0  0  0
  8 34  1  0  0  0  0
  9 10  1  0  0  0  0
 10 11  1  0  0  0  0
 10 52  2  0  0  0  0
 11 12  1  0  0  0  0
 11 35  1  0  0  0  0
 12 13  1  0  0  0  0
 12 14  1  0  0  0  0
 12 21  1  0  0  0  0
 14 15  1  0  0  0  0
 14 36  1  0  0  0  0
 14 37  1  0  0  0  0
 15 20  2  0  0  0  0
 15 16  1  0  0  0  0
 16 17  2  0  0  0  0
 16 38  1  0  0  0  0
 17 18  1  0  0  0  0
 17 39  1  0  0  0  0
 18 19  2  0  0  0  0
 18 40  1  0  0  0  0
 19 20  1  0  0  0  0
 19 41  1  0  0  0  0
 20 42  1  0  0  0  0
 21 22  2  0  0  0  0
 21 54  1  0  0  0  0
 23 24  1  0  0  0  0
 24 43  1  0  0  0  0
 24 44  1  0  0  0  0
 24 45  1  0  0  0  0
 25 26  1  0  0  0  0
 26 46  1  0  0  0  0
 26 47  1  0  0  0  0
 26 48  1  0  0  0  0
 27 49  1  0  0  0  0
 27 50  1  0  0  0  0
 27 51  1  0  0  0  0
 52 53  1  0  0  0  0
M  CHG  2  52   1  54  -1
M  END
$$$$
ZINC03623695
  -OEChem-08230709463D

 56 57  0     1  0  0  0  0  0999 V2000
   -9.1169   -5.8059    1.3091 C   0  0  0  0  0  0  0  0  0  0  0  0
   -8.2060   -5.6989    0.0845 C   0  0  0  0  0  0  0  0  0  0  0  0
   -6.9155   -4.9733    0.4706 C   0  0  0  0  0  0  0  0  0  0  0  0
   -6.0647   -4.8733   -0.6732 O   0  0  0  0  0  0  0  0  0  0  0  0
   -4.8690   -4.2510   -0.5003 C   0  0  0  0  0  0  0  0  0  0  0  0
   -3.9936   -4.1187   -1.5684 C   0  0  0  0  0  0  0  0  0  0  0  0
   -2.7786   -3.4861   -1.3899 C   0  0  0  0  0  0  0  0  0  0  0  0
   -2.4344   -2.9854   -0.1479 C   0  0  0  0  0  0  0  0  0  0  0  0
   -3.3027   -3.1209    0.9196 C   0  0  0  0  0  0  0  0  0  0  0  0
   -4.5215   -3.7473    0.7448 C   0  0  0  0  0  0  0  0  0  0  0  0
   -1.1081   -2.2962    0.0441 C   0  0  1  0  0  0  0  0  0  0  0  0
   -0.4282   -2.5870   -0.7567 H   0  0  0  0  0  0  0  0  0  0  0  0
   -1.3121   -0.7801    0.0145 C   0  0  0  0  0  0  0  0  0  0  0  0
   -1.7431   -0.3582   -1.3666 C   0  0  0  0  0  0  0  0  0  0  0  0
   -1.7566   -1.1631   -2.2675 O   0  0  0  0  0  0  0  0  0  0  0  0
   -0.5372   -2.6869    1.3355 N   0  0  0  0  0  0  0  0  0  0  0  0
    0.7861   -2.5552    1.5548 C   0  0  0  0  0  0  0  0  0  0  0  0
    1.5188   -2.1966    0.6536 O   0  0  0  0  0  0  0  0  0  0  0  0
    1.3465   -2.8470    2.8914 C   0  0  0  0  0  0  0  0  0  0  0  0
    0.5072   -3.2534    3.9299 C   0  0  0  0  0  0  0  0  0  0  0  0
    1.0372   -3.5283    5.1736 C   0  0  0  0  0  0  0  0  0  0  0  0
    2.3961   -3.3921    5.3954 C   0  0  0  0  0  0  0  0  0  0  0  0
    3.2329   -2.9850    4.3716 C   0  0  0  0  0  0  0  0  0  0  0  0
    2.7165   -2.7116    3.1218 C   0  0  0  0  0  0  0  0  0  0  0  0
    2.9672   -3.6890    6.7580 C   0  0  0  0  0  0  0  0  0  0  0  0
    3.6472   -2.4346    7.3103 C   0  0  0  0  0  0  0  0  0  0  0  0
    1.8408   -4.1157    7.7013 C   0  0  0  0  0  0  0  0  0  0  0  0
    3.9937   -4.8180    6.6458 C   0  0  0  0  0  0  0  0  0  0  0  0
   -8.6067   -6.3646    2.0937 H   0  0  0  0  0  0  0  0  0  0  0  0
   -9.3567   -4.8065    1.6720 H   0  0  0  0  0  0  0  0  0  0  0  0
  -10.0362   -6.3229    1.0340 H   0  0  0  0  0  0  0  0  0  0  0  0
   -8.7162   -5.1402   -0.7001 H   0  0  0  0  0  0  0  0  0  0  0  0
   -7.9662   -6.6983   -0.2784 H   0  0  0  0  0  0  0  0  0  0  0  0
   -6.4053   -5.5320    1.2552 H   0  0  0  0  0  0  0  0  0  0  0  0
   -7.1553   -3.9738    0.8335 H   0  0  0  0  0  0  0  0  0  0  0  0
   -4.2620   -4.5097   -2.5387 H   0  0  0  0  0  0  0  0  0  0  0  0
   -2.0968   -3.3829   -2.2211 H   0  0  0  0  0  0  0  0  0  0  0  0
   -3.0296   -2.7332    1.8899 H   0  0  0  0  0  0  0  0  0  0  0  0
   -5.2011   -3.8494    1.5780 H   0  0  0  0  0  0  0  0  0  0  0  0
   -0.3769   -0.2826    0.2711 H   0  0  0  0  0  0  0  0  0  0  0  0
   -2.0810   -0.5028    0.7356 H   0  0  0  0  0  0  0  0  0  0  0  0
   -1.1115   -3.0404    2.0327 H   0  0  0  0  0  0  0  0  0  0  0  0
   -0.5543   -3.3558    3.7593 H   0  0  0  0  0  0  0  0  0  0  0  0
    0.3893   -3.8464    5.9770 H   0  0  0  0  0  0  0  0  0  0  0  0
    4.2928   -2.8806    4.5512 H   0  0  0  0  0  0  0  0  0  0  0  0
    3.3708   -2.3939    2.3235 H   0  0  0  0  0  0  0  0  0  0  0  0
    2.9160   -1.6302    7.3902 H   0  0  0  0  0  0  0  0  0  0  0  0
    4.0603   -2.6493    8.2959 H   0  0  0  0  0  0  0  0  0  0  0  0
    4.4498   -2.1305    6.6383 H   0  0  0  0  0  0  0  0  0  0  0  0
    1.3563   -5.0094    7.3078 H   0  0  0  0  0  0  0  0  0  0  0  0
    2.2539   -4.3304    8.6868 H   0  0  0  0  0  0  0  0  0  0  0  0
    1.1095   -3.3114    7.7812 H   0  0  0  0  0  0  0  0  0  0  0  0
    4.7962   -4.5140    5.9738 H   0  0  0  0  0  0  0  0  0  0  0  0
    4.4068   -5.0327    7.6313 H   0  0  0  0  0  0  0  0  0  0  0  0
    3.5093   -5.7116    6.2523 H   0  0  0  0  0  0  0  0  0  0  0  0
   -2.1121    0.9119   -1.5957 O   0  5  0  0  0  0  0  0  0  0  0  0
  1  2  1  0  0  0  0
  1 29  1  0  0  0  0
  1 30  1  0  0  0  0
  1 31  1  0  0  0  0
  2  3  1  0  0  0  0
  2 32  1  0  0  0  0
  2 33  1  0  0  0  0
  3  4  1  0  0  0  0
  3 34  1  0  0  0  0
  3 35  1  0  0  0  0
  4  5  1  0  0  0  0
  5 10  2  0  0  0  0
  5  6  1  0  0  0  0
  6  7  2  0  0  0  0
  6 36  1  0  0  0  0
  7  8  1  0  0  0  0
  7 37  1  0  0  0  0
  8  9  2  0  0  0  0
  8 11  1  0  0  0  0
  9 10  1  0  0  0  0
  9 38  1  0  0  0  0
 10 39  1  0  0  0  0
 11 12  1  0  0  0  0
 11 13  1  0  0  0  0
 11 16  1  0  0  0  0
 13 14  1  0  0  0  0
 13 40  1  0  0  0  0
 13 41  1  0  0  0  0
 14 15  2  0  0  0  0
 14 56  1  0  0  0  0
 16 17  1  0  0  0  0
 16 42  1  0  0  0  0
 17 18  2  0  0  0  0
 17 19  1  0  0  0  0
 19 24  2  0  0  0  0
 19 20  1  0  0  0  0
 20 21  2  0  0  0  0
 20 43  1  0  0  0  0
 21 22  1  0  0  0  0
 21 44  1  0  0  0  0
 22 23  2  0  0  0  0
 22 25  1  0  0  0  0
 23 24  1  0  0  0  0
 23 45  1  0  0  0  0
 24 46  1  0  0  0  0
 25 26  1  0  0  0  0
 25 27  1  0  0  0  0
 25 28  1  0  0  0  0
 26 47  1  0  0  0  0
 26 48  1  0  0  0  0
 26 49  1  0  0  0  0
 27 50  1  0  0  0  0
 27 51  1  0  0  0  0
 27 52  1  0  0  0  0
 28 53  1  0  0  0  0
 28 54  1  0  0  0  0
 28 55  1  0  0  0  0
M  CHG  1  56  -1
M  END
$$$$
ZINC03626606
  -OEChem-08230709463D

 67 71  0     1  0  0  0  0  0999 V2000
   -0.4334    8.4351   -5.1565 C   0  0  0  0  0  0  0  0  0  0  0  0
    0.1615    8.4487   -3.8573 O   0  0  0  0  0  0  0  0  0  0  0  0
   -0.6391    8.1229   -2.8087 C   0  0  0  0  0  0  0  0  0  0  0  0
   -1.9708    7.7970   -3.0252 C   0  0  0  0  0  0  0  0  0  0  0  0
   -2.7802    7.4642   -1.9581 C   0  0  0  0  0  0  0  0  0  0  0  0
   -2.2717    7.4540   -0.6695 C   0  0  0  0  0  0  0  0  0  0  0  0
   -0.9460    7.7833   -0.4469 C   0  0  0  0  0  0  0  0  0  0  0  0
   -0.1284    8.1156   -1.5218 C   0  0  0  0  0  0  0  0  0  0  0  0
   -0.4128    7.8024    0.8012 O   0  0  0  0  0  0  0  0  0  0  0  0
   -1.1150    7.1265    1.8475 C   0  0  1  0  0  0  0  0  0  0  0  0
   -0.5362    7.5447    3.2044 C   0  0  0  0  0  0  0  0  0  0  0  0
   -0.6150    9.0790    3.3202 C   0  0  0  0  0  0  0  0  0  0  0  0
   -2.0754    9.5251    3.2336 C   0  0  0  0  0  0  0  0  0  0  0  0
   -2.6721    9.0770    1.8973 C   0  0  0  0  0  0  0  0  0  0  0  0
   -2.5883    7.5538    1.7927 C   0  0  1  0  0  0  0  0  0  0  0  0
   -3.1311    7.1004    2.6221 H   0  0  0  0  0  0  0  0  0  0  0  0
   -3.1873    7.0795    0.4686 C   0  0  0  0  0  0  0  0  0  0  0  0
   -4.5520    7.7400    0.2603 C   0  0  0  0  0  0  0  0  0  0  0  0
   -5.4839    7.3579    1.4119 C   0  0  0  0  0  0  0  0  0  0  0  0
   -5.6542    5.8378    1.4480 C   0  0  0  0  0  0  0  0  0  0  0  0
   -4.2899    5.1765    1.6544 C   0  0  0  0  0  0  0  0  0  0  0  0
   -3.3585    5.5590    0.5023 C   0  0  0  0  0  0  0  0  0  0  0  0
   -0.9997    5.6344    1.6711 C   0  0  0  0  0  0  0  0  0  0  0  0
   -0.3700    5.1177    0.5546 C   0  0  0  0  0  0  0  0  0  0  0  0
   -0.2573    3.7503    0.3931 C   0  0  0  0  0  0  0  0  0  0  0  0
   -0.7874    2.8917    1.3462 C   0  0  0  0  0  0  0  0  0  0  0  0
   -1.4198    3.4075    2.4666 C   0  0  0  0  0  0  0  0  0  0  0  0
   -1.5262    4.7803    2.6295 C   0  0  0  0  0  0  0  0  0  0  0  0
   -2.1460    5.2889    3.7267 O   0  0  0  0  0  0  0  0  0  0  0  0
   -2.6647    4.3511    4.6720 C   0  0  0  0  0  0  0  0  0  0  0  0
   -3.3116    5.0934    5.8129 C   0  0  0  0  0  0  0  0  0  0  0  0
   -3.3268    6.3015    5.8162 O   0  0  0  0  0  0  0  0  0  0  0  0
   -0.6816    1.5467    1.1837 O   0  0  0  0  0  0  0  0  0  0  0  0
   -0.0174    1.0858    0.0054 C   0  0  0  0  0  0  0  0  0  0  0  0
    0.3128    8.7131   -5.9008 H   0  0  0  0  0  0  0  0  0  0  0  0
   -0.8084    7.4350   -5.3740 H   0  0  0  0  0  0  0  0  0  0  0  0
   -1.2584    9.1468   -5.1857 H   0  0  0  0  0  0  0  0  0  0  0  0
   -2.3731    7.8043   -4.0274 H   0  0  0  0  0  0  0  0  0  0  0  0
   -3.8157    7.2092   -2.1288 H   0  0  0  0  0  0  0  0  0  0  0  0
    0.9078    8.3684   -1.3523 H   0  0  0  0  0  0  0  0  0  0  0  0
   -1.1097    7.0772    4.0048 H   0  0  0  0  0  0  0  0  0  0  0  0
    0.5053    7.2296    3.2690 H   0  0  0  0  0  0  0  0  0  0  0  0
   -0.0471    9.5380    2.5110 H   0  0  0  0  0  0  0  0  0  0  0  0
   -0.1972    9.3892    4.2779 H   0  0  0  0  0  0  0  0  0  0  0  0
   -2.1280   10.6112    3.3085 H   0  0  0  0  0  0  0  0  0  0  0  0
   -2.6405    9.0778    4.0514 H   0  0  0  0  0  0  0  0  0  0  0  0
   -2.1121    9.5293    1.0788 H   0  0  0  0  0  0  0  0  0  0  0  0
   -3.7150    9.3889    1.8416 H   0  0  0  0  0  0  0  0  0  0  0  0
   -4.4314    8.8230    0.2344 H   0  0  0  0  0  0  0  0  0  0  0  0
   -4.9805    7.3993   -0.6823 H   0  0  0  0  0  0  0  0  0  0  0  0
   -6.4557    7.8289    1.2644 H   0  0  0  0  0  0  0  0  0  0  0  0
   -5.0548    7.6978    2.3545 H   0  0  0  0  0  0  0  0  0  0  0  0
   -6.0838    5.4979    0.5057 H   0  0  0  0  0  0  0  0  0  0  0  0
   -6.3177    5.5659    2.2689 H   0  0  0  0  0  0  0  0  0  0  0  0
   -4.4111    4.0936    1.6795 H   0  0  0  0  0  0  0  0  0  0  0  0
   -3.8604    5.5161    2.5969 H   0  0  0  0  0  0  0  0  0  0  0  0
   -3.7888    5.2208   -0.4403 H   0  0  0  0  0  0  0  0  0  0  0  0
   -2.3870    5.0870    0.6484 H   0  0  0  0  0  0  0  0  0  0  0  0
    0.0388    5.7841   -0.1905 H   0  0  0  0  0  0  0  0  0  0  0  0
    0.2394    3.3489   -0.4779 H   0  0  0  0  0  0  0  0  0  0  0  0
   -1.8293    2.7411    3.2114 H   0  0  0  0  0  0  0  0  0  0  0  0
   -3.4052    3.7164    4.1852 H   0  0  0  0  0  0  0  0  0  0  0  0
   -1.8520    3.7336    5.0545 H   0  0  0  0  0  0  0  0  0  0  0  0
   -0.0021   -0.0041   -0.0003 H   0  0  0  0  0  0  0  0  0  0  0  0
    1.0049    1.4636   -0.0068 H   0  0  0  0  0  0  0  0  0  0  0  0
   -0.5485    1.4463   -0.8756 H   0  0  0  0  0  0  0  0  0  0  0  0
   -3.8708    4.4123    6.8254 O   0  5  0  0  0  0  0  0  0  0  0  0
  1  2  1  0  0  0  0
  1 35  1  0  0  0  0
  1 36  1  0  0  0  0
  1 37  1  0  0  0  0
  2  3  1  0  0  0  0
  3  8  2  0  0  0  0
  3  4  1  0  0  0  0
  4  5  2  0  0  0  0
  4 38  1  0  0  0  0
  5  6  1  0  0  0  0
  5 39  1  0  0  0  0
  6 17  1  0  0  0  0
  6  7  2  0  0  0  0
  7  8  1  0  0  0  0
  7  9  1  0  0  0  0
  8 40  1  0  0  0  0
  9 10  1  0  0  0  0
 10 15  1  0  0  0  0
 10 11  1  0  0  0  0
 10 23  1  0  0  0  0
 11 12  1  0  0  0  0
 11 41  1  0  0  0  0
 11 42  1  0  0  0  0
 12 13  1  0  0  0  0
 12 43  1  0  0  0  0
 12 44  1  0  0  0  0
 13 14  1  0  0  0  0
 13 45  1  0  0  0  0
 13 46  1  0  0  0  0
 14 15  1  0  0  0  0
 14 47  1  0  0  0  0
 14 48  1  0  0  0  0
 15 16  1  0  0  0  0
 15 17  1  0  0  0  0
 17 22  1  0  0  0  0
 17 18  1  0  0  0  0
 18 19  1  0  0  0  0
 18 49  1  0  0  0  0
 18 50  1  0  0  0  0
 19 20  1  0  0  0  0
 19 51  1  0  0  0  0
 19 52  1  0  0  0  0
 20 21  1  0  0  0  0
 20 53  1  0  0  0  0
 20 54  1  0  0  0  0
 21 22  1  0  0  0  0
 21 55  1  0  0  0  0
 21 56  1  0  0  0  0
 22 57  1  0  0  0  0
 22 58  1  0  0  0  0
 23 28  2  0  0  0  0
 23 24  1  0  0  0  0
 24 25  2  0  0  0  0
 24 59  1  0  0  0  0
 25 26  1  0  0  0  0
 25 60  1  0  0  0  0
 26 27  2  0  0  0  0
 26 33  1  0  0  0  0
 27 28  1  0  0  0  0
 27 61  1  0  0  0  0
 28 29  1  0  0  0  0
 29 30  1  0  0  0  0
 30 31  1  0  0  0  0
 30 62  1  0  0  0  0
 30 63  1  0  0  0  0
 31 32  2  0  0  0  0
 31 67  1  0  0  0  0
 33 34  1  0  0  0  0
 34 64  1  0  0  0  0
 34 65  1  0  0  0  0
 34 66  1  0  0  0  0
M  CHG  1  67  -1
M  END
$$$$
ZINC03626830
  -OEChem-08230709463D

 58 59  0     1  0  0  0  0  0999 V2000
   -5.9585   -6.3782   -1.1565 C   0  0  0  0  0  0  0  0  0  0  0  0
   -6.1938   -4.9394   -0.6922 C   0  0  0  0  0  0  0  0  0  0  0  0
   -6.9597   -4.9498    0.6323 C   0  0  0  0  0  0  0  0  0  0  0  0
   -7.0099   -4.1901   -1.7473 C   0  0  0  0  0  0  0  0  0  0  0  0
   -4.8675   -4.2502   -0.5001 C   0  0  0  0  0  0  0  0  0  0  0  0
   -3.9961   -4.1191   -1.5652 C   0  0  0  0  0  0  0  0  0  0  0  0
   -2.7797   -3.4865   -1.3891 C   0  0  0  0  0  0  0  0  0  0  0  0
   -2.4344   -2.9854   -0.1479 C   0  0  0  0  0  0  0  0  0  0  0  0
   -3.3034   -3.1216    0.9185 C   0  0  0  0  0  0  0  0  0  0  0  0
   -4.5221   -3.7496    0.7412 C   0  0  0  0  0  0  0  0  0  0  0  0
   -1.1081   -2.2962    0.0441 C   0  0  1  0  0  0  0  0  0  0  0  0
   -0.4282   -2.5870   -0.7567 H   0  0  0  0  0  0  0  0  0  0  0  0
   -1.3122   -0.7801    0.0145 C   0  0  0  0  0  0  0  0  0  0  0  0
   -1.7432   -0.3582   -1.3665 C   0  0  0  0  0  0  0  0  0  0  0  0
   -1.7567   -1.1632   -2.2675 O   0  0  0  0  0  0  0  0  0  0  0  0
   -0.5372   -2.6869    1.3355 N   0  0  0  0  0  0  0  0  0  0  0  0
    0.7861   -2.5552    1.5548 C   0  0  0  0  0  0  0  0  0  0  0  0
    1.5188   -2.1966    0.6536 O   0  0  0  0  0  0  0  0  0  0  0  0
    1.3465   -2.8470    2.8914 C   0  0  0  0  0  0  0  0  0  0  0  0
    0.5072   -3.2534    3.9299 C   0  0  0  0  0  0  0  0  0  0  0  0
    1.0372   -3.5283    5.1736 C   0  0  0  0  0  0  0  0  0  0  0  0
    2.3961   -3.3921    5.3954 C   0  0  0  0  0  0  0  0  0  0  0  0
    3.2329   -2.9850    4.3716 C   0  0  0  0  0  0  0  0  0  0  0  0
    2.7165   -2.7116    3.1218 C   0  0  0  0  0  0  0  0  0  0  0  0
    2.9672   -3.6890    6.7580 C   0  0  0  0  0  0  0  0  0  0  0  0
    3.6472   -2.4346    7.3103 C   0  0  0  0  0  0  0  0  0  0  0  0
    1.8408   -4.1157    7.7013 C   0  0  0  0  0  0  0  0  0  0  0  0
    3.9937   -4.8180    6.6458 C   0  0  0  0  0  0  0  0  0  0  0  0
   -5.3771   -6.9120   -0.4048 H   0  0  0  0  0  0  0  0  0  0  0  0
   -6.9178   -6.8766   -1.2954 H   0  0  0  0  0  0  0  0  0  0  0  0
   -5.4129   -6.3708   -2.1001 H   0  0  0  0  0  0  0  0  0  0  0  0
   -7.1273   -3.9249    0.9631 H   0  0  0  0  0  0  0  0  0  0  0  0
   -7.9190   -5.4483    0.4934 H   0  0  0  0  0  0  0  0  0  0  0  0
   -6.3783   -5.4837    1.3840 H   0  0  0  0  0  0  0  0  0  0  0  0
   -6.4643   -4.1827   -2.6909 H   0  0  0  0  0  0  0  0  0  0  0  0
   -7.9692   -4.6886   -1.8862 H   0  0  0  0  0  0  0  0  0  0  0  0
   -7.1776   -3.1651   -1.4165 H   0  0  0  0  0  0  0  0  0  0  0  0
   -4.2658   -4.5105   -2.5349 H   0  0  0  0  0  0  0  0  0  0  0  0
   -2.0989   -3.3840   -2.2213 H   0  0  0  0  0  0  0  0  0  0  0  0
   -3.0318   -2.7340    1.8893 H   0  0  0  0  0  0  0  0  0  0  0  0
   -5.2027   -3.8524    1.5734 H   0  0  0  0  0  0  0  0  0  0  0  0
   -0.3770   -0.2826    0.2711 H   0  0  0  0  0  0  0  0  0  0  0  0
   -2.0810   -0.5029    0.7357 H   0  0  0  0  0  0  0  0  0  0  0  0
   -1.1115   -3.0404    2.0327 H   0  0  0  0  0  0  0  0  0  0  0  0
   -0.5543   -3.3558    3.7593 H   0  0  0  0  0  0  0  0  0  0  0  0
    0.3893   -3.8464    5.9770 H   0  0  0  0  0  0  0  0  0  0  0  0
    4.2928   -2.8806    4.5512 H   0  0  0  0  0  0  0  0  0  0  0  0
    3.3708   -2.3939    2.3235 H   0  0  0  0  0  0  0  0  0  0  0  0
    2.9160   -1.6302    7.3902 H   0  0  0  0  0  0  0  0  0  0  0  0
    4.0603   -2.6493    8.2959 H   0  0  0  0  0  0  0  0  0  0  0  0
    4.4498   -2.1305    6.6383 H   0  0  0  0  0  0  0  0  0  0  0  0
    1.3563   -5.0094    7.3078 H   0  0  0  0  0  0  0  0  0  0  0  0
    2.2539   -4.3304    8.6868 H   0  0  0  0  0  0  0  0  0  0  0  0
    1.1095   -3.3114    7.7812 H   0  0  0  0  0  0  0  0  0  0  0  0
    4.7962   -4.5140    5.9738 H   0  0  0  0  0  0  0  0  0  0  0  0
    4.4068   -5.0327    7.6313 H   0  0  0  0  0  0  0  0  0  0  0  0
    3.5093   -5.7116    6.2523 H   0  0  0  0  0  0  0  0  0  0  0  0
   -2.1122    0.9119   -1.5957 O   0  5  0  0  0  0  0  0  0  0  0  0
  1  2  1  0  0  0  0
  1 29  1  0  0  0  0
  1 30  1  0  0  0  0
  1 31  1  0  0  0  0
  2  3  1  0  0  0  0
  2  4  1  0  0  0  0
  2  5  1  0  0  0  0
  3 32  1  0  0  0  0
  3 33  1  0  0  0  0
  3 34  1  0  0  0  0
  4 35  1  0  0  0  0
  4 36  1  0  0  0  0
  4 37  1  0  0  0  0
  5 10  2  0  0  0  0
  5  6  1  0  0  0  0
  6  7  2  0  0  0  0
  6 38  1  0  0  0  0
  7  8  1  0  0  0  0
  7 39  1  0  0  0  0
  8  9  2  0  0  0  0
  8 11  1  0  0  0  0
  9 10  1  0  0  0  0
  9 40  1  0  0  0  0
 10 41  1  0  0  0  0
 11 12  1  0  0  0  0
 11 13  1  0  0  0  0
 11 16  1  0  0  0  0
 13 14  1  0  0  0  0
 13 42  1  0  0  0  0
 13 43  1  0  0  0  0
 14 15  2  0  0  0  0
 14 58  1  0  0  0  0
 16 17  1  0  0  0  0
 16 44  1  0  0  0  0
 17 18  2  0  0  0  0
 17 19  1  0  0  0  0
 19 24  2  0  0  0  0
 19 20  1  0  0  0  0
 20 21  2  0  0  0  0
 20 45  1  0  0  0  0
 21 22  1  0  0  0  0
 21 46  1  0  0  0  0
 22 23  2  0  0  0  0
 22 25  1  0  0  0  0
 23 24  1  0  0  0  0
 23 47  1  0  0  0  0
 24 48  1  0  0  0  0
 25 26  1  0  0  0  0
 25 27  1  0  0  0  0
 25 28  1  0  0  0  0
 26 49  1  0  0  0  0
 26 50  1  0  0  0  0
 26 51  1  0  0  0  0
 27 52  1  0  0  0  0
 27 53  1  0  0  0  0
 27 54  1  0  0  0  0
 28 55  1  0  0  0  0
 28 56  1  0  0  0  0
 28 57  1  0  0  0  0
M  CHG  1  58  -1
M  END
$$$$
ZINC03626832
  -OEChem-08230709463D

 58 59  0     1  0  0  0  0  0999 V2000
    2.3144    7.9029    2.7498 C   0  0  0  0  0  0  0  0  0  0  0  0
    1.0736    7.0674    3.0706 C   0  0  0  0  0  0  0  0  0  0  0  0
   -0.1820    7.8432    2.6675 C   0  0  0  0  0  0  0  0  0  0  0  0
    1.0311    6.7728    4.5714 C   0  0  0  0  0  0  0  0  0  0  0  0
    1.1298    5.7702    2.3055 C   0  0  0  0  0  0  0  0  0  0  0  0
    2.1818    4.8957    2.5041 C   0  0  0  0  0  0  0  0  0  0  0  0
    2.2336    3.7061    1.8020 C   0  0  0  0  0  0  0  0  0  0  0  0
    1.2335    3.3910    0.9013 C   0  0  0  0  0  0  0  0  0  0  0  0
    0.1842    4.2679    0.6988 C   0  0  0  0  0  0  0  0  0  0  0  0
    0.1297    5.4551    1.4048 C   0  0  0  0  0  0  0  0  0  0  0  0
    1.2902    2.0943    0.1355 C   0  0  2  0  0  0  0  0  0  0  0  0
    1.9512    1.3970    0.6503 H   0  0  0  0  0  0  0  0  0  0  0  0
    1.8244    2.3573   -1.2739 C   0  0  0  0  0  0  0  0  0  0  0  0
    2.0119    1.0462   -1.9928 C   0  0  0  0  0  0  0  0  0  0  0  0
    1.8418    0.0048   -1.4043 O   0  0  0  0  0  0  0  0  0  0  0  0
   -0.0544    1.5192    0.0487 N   0  0  0  0  0  0  0  0  0  0  0  0
   -0.5563    0.8195    1.0856 C   0  0  0  0  0  0  0  0  0  0  0  0
    0.1386    0.5880    2.0557 O   0  0  0  0  0  0  0  0  0  0  0  0
   -1.9519    0.3336    1.0430 C   0  0  0  0  0  0  0  0  0  0  0  0
   -2.7542    0.6027   -0.0670 C   0  0  0  0  0  0  0  0  0  0  0  0
   -4.0544    0.1426   -0.1022 C   0  0  0  0  0  0  0  0  0  0  0  0
   -4.5665   -0.5753    0.9639 C   0  0  0  0  0  0  0  0  0  0  0  0
   -3.7780   -0.8414    2.0692 C   0  0  0  0  0  0  0  0  0  0  0  0
   -2.4748   -0.3912    2.1151 C   0  0  0  0  0  0  0  0  0  0  0  0
   -5.9893   -1.0702    0.9207 C   0  0  0  0  0  0  0  0  0  0  0  0
   -6.7735   -0.4706    2.0896 C   0  0  0  0  0  0  0  0  0  0  0  0
   -6.6370   -0.6460   -0.3990 C   0  0  0  0  0  0  0  0  0  0  0  0
   -6.0019   -2.5964    1.0276 C   0  0  0  0  0  0  0  0  0  0  0  0
    2.3447    8.1128    1.6806 H   0  0  0  0  0  0  0  0  0  0  0  0
    2.2737    8.8411    3.3032 H   0  0  0  0  0  0  0  0  0  0  0  0
    3.2089    7.3502    3.0370 H   0  0  0  0  0  0  0  0  0  0  0  0
   -1.0660    7.2479    2.8960 H   0  0  0  0  0  0  0  0  0  0  0  0
   -0.2227    8.7814    3.2208 H   0  0  0  0  0  0  0  0  0  0  0  0
   -0.1517    8.0531    1.5983 H   0  0  0  0  0  0  0  0  0  0  0  0
    1.9256    6.2201    4.8586 H   0  0  0  0  0  0  0  0  0  0  0  0
    0.9904    7.7110    5.1248 H   0  0  0  0  0  0  0  0  0  0  0  0
    0.1471    6.1775    4.8000 H   0  0  0  0  0  0  0  0  0  0  0  0
    2.9634    5.1421    3.2076 H   0  0  0  0  0  0  0  0  0  0  0  0
    3.0557    3.0230    1.9569 H   0  0  0  0  0  0  0  0  0  0  0  0
   -0.5949    4.0237   -0.0081 H   0  0  0  0  0  0  0  0  0  0  0  0
   -0.6920    6.1385    1.2494 H   0  0  0  0  0  0  0  0  0  0  0  0
    1.1129    2.9742   -1.8229 H   0  0  0  0  0  0  0  0  0  0  0  0
    2.7808    2.8761   -1.2090 H   0  0  0  0  0  0  0  0  0  0  0  0
   -0.5819    1.6385   -0.7565 H   0  0  0  0  0  0  0  0  0  0  0  0
   -2.3570    1.1668   -0.8979 H   0  0  0  0  0  0  0  0  0  0  0  0
   -4.6751    0.3469   -0.9621 H   0  0  0  0  0  0  0  0  0  0  0  0
   -4.1838   -1.4023    2.8981 H   0  0  0  0  0  0  0  0  0  0  0  0
   -1.8603   -0.5995    2.9785 H   0  0  0  0  0  0  0  0  0  0  0  0
   -6.7645    0.6167    2.0135 H   0  0  0  0  0  0  0  0  0  0  0  0
   -7.8026   -0.8285    2.0584 H   0  0  0  0  0  0  0  0  0  0  0  0
   -6.3121   -0.7728    3.0297 H   0  0  0  0  0  0  0  0  0  0  0  0
   -6.0783   -1.0731   -1.2317 H   0  0  0  0  0  0  0  0  0  0  0  0
   -7.6661   -1.0039   -0.4302 H   0  0  0  0  0  0  0  0  0  0  0  0
   -6.6280    0.4413   -0.4751 H   0  0  0  0  0  0  0  0  0  0  0  0
   -5.5405   -2.8986    1.9677 H   0  0  0  0  0  0  0  0  0  0  0  0
   -7.0310   -2.9543    0.9963 H   0  0  0  0  0  0  0  0  0  0  0  0
   -5.4432   -3.0236    0.1948 H   0  0  0  0  0  0  0  0  0  0  0  0
    2.3679    1.0353   -3.2870 O   0  5  0  0  0  0  0  0  0  0  0  0
  1  2  1  0  0  0  0
  1 29  1  0  0  0  0
  1 30  1  0  0  0  0
  1 31  1  0  0  0  0
  2  3  1  0  0  0  0
  2  4  1  0  0  0  0
  2  5  1  0  0  0  0
  3 32  1  0  0  0  0
  3 33  1  0  0  0  0
  3 34  1  0  0  0  0
  4 35  1  0  0  0  0
  4 36  1  0  0  0  0
  4 37  1  0  0  0  0
  5 10  2  0  0  0  0
  5  6  1  0  0  0  0
  6  7  2  0  0  0  0
  6 38  1  0  0  0  0
  7  8  1  0  0  0  0
  7 39  1  0  0  0  0
  8  9  2  0  0  0  0
  8 11  1  0  0  0  0
  9 10  1  0  0  0  0
  9 40  1  0  0  0  0
 10 41  1  0  0  0  0
 11 12  1  0  0  0  0
 11 13  1  0  0  0  0
 11 16  1  0  0  0  0
 13 14  1  0  0  0  0
 13 42  1  0  0  0  0
 13 43  1  0  0  0  0
 14 15  2  0  0  0  0
 14 58  1  0  0  0  0
 16 17  1  0  0  0  0
 16 44  1  0  0  0  0
 17 18  2  0  0  0  0
 17 19  1  0  0  0  0
 19 24  2  0  0  0  0
 19 20  1  0  0  0  0
 20 21  2  0  0  0  0
 20 45  1  0  0  0  0
 21 22  1  0  0  0  0
 21 46  1  0  0  0  0
 22 23  2  0  0  0  0
 22 25  1  0  0  0  0
 23 24  1  0  0  0  0
 23 47  1  0  0  0  0
 24 48  1  0  0  0  0
 25 26  1  0  0  0  0
 25 27  1  0  0  0  0
 25 28  1  0  0  0  0
 26 49  1  0  0  0  0
 26 50  1  0  0  0  0
 26 51  1  0  0  0  0
 27 52  1  0  0  0  0
 27 53  1  0  0  0  0
 27 54  1  0  0  0  0
 28 55  1  0  0  0  0
 28 56  1  0  0  0  0
 28 57  1  0  0  0  0
M  CHG  1  58  -1
M  END
$$$$
ZINC03634280
  -OEChem-08230709463D

 54 56  0     1  0  0  0  0  0999 V2000
   -5.8425    0.2407   -4.0747 C   0  0  0  0  0  0  0  0  0  0  0  0
   -4.4948    0.9236   -3.8329 C   0  0  0  0  0  0  0  0  0  0  0  0
   -4.1939    0.9413   -2.3329 C   0  0  0  0  0  0  0  0  0  0  0  0
   -2.9150    1.5894   -2.1034 O   0  0  0  0  0  0  0  0  0  0  0  0
   -2.4992    1.6878   -0.8240 C   0  0  0  0  0  0  0  0  0  0  0  0
   -3.1876    1.2436    0.0751 O   0  0  0  0  0  0  0  0  0  0  0  0
   -1.2191    2.3293   -0.5175 C   0  0  0  0  0  0  0  0  0  0  0  0
    0.0162    1.5585   -0.4623 C   0  0  0  0  0  0  0  0  0  0  0  0
    1.1200    2.2735   -0.1571 C   0  0  0  0  0  0  0  0  0  0  0  0
    0.5463    3.9391    0.0350 S   0  0  0  0  0  0  0  0  0  0  0  0
   -1.1406    3.6916   -0.2691 C   0  0  0  0  0  0  0  0  0  0  0  0
   -2.1630    4.6274   -0.2667 N   0  0  0  0  0  0  0  0  0  0  0  0
   -1.8921    5.9208   -0.0018 C   0  0  0  0  0  0  0  0  0  0  0  0
   -0.7537    6.2658    0.2345 O   0  0  0  0  0  0  0  0  0  0  0  0
   -3.0038    6.9383    0.0008 C   0  0  2  0  0  0  0  0  0  0  0  0
   -3.8504    6.5574   -0.5705 H   0  0  0  0  0  0  0  0  0  0  0  0
   -2.5074    8.2441   -0.6237 C   0  0  0  0  0  0  0  0  0  0  0  0
   -1.5217    8.9119    0.2896 C   0  0  0  0  0  0  0  0  0  0  0  0
   -1.3882    8.6273    1.5453 C   0  0  0  0  0  0  0  0  0  0  0  0
   -2.1933    7.5823    2.2607 C   0  0  0  0  0  0  0  0  0  0  0  0
   -3.4372    7.2248    1.4441 C   0  0  2  0  0  0  0  0  0  0  0  0
   -4.1372    8.0602    1.4575 H   0  0  0  0  0  0  0  0  0  0  0  0
   -4.0922    6.0001    2.0289 C   0  0  0  0  0  0  0  0  0  0  0  0
   -4.2033    4.9981    1.3630 O   0  0  0  0  0  0  0  0  0  0  0  0
    2.5223    1.7719   -0.0068 C   0  0  0  0  0  0  0  0  0  0  0  0
    2.8787    0.8943   -1.2142 C   0  0  0  0  0  0  0  0  0  0  0  0
    2.4859   -0.5451   -0.8968 C   0  0  0  0  0  0  0  0  0  0  0  0
    1.2437   -0.5674   -0.0085 C   0  0  0  0  0  0  0  0  0  0  0  0
    0.0591    0.0602   -0.7349 C   0  0  0  0  0  0  0  0  0  0  0  0
   -5.8040   -0.7821   -3.6998 H   0  0  0  0  0  0  0  0  0  0  0  0
   -6.6266    0.7896   -3.5533 H   0  0  0  0  0  0  0  0  0  0  0  0
   -6.0568    0.2281   -5.1433 H   0  0  0  0  0  0  0  0  0  0  0  0
   -4.5333    1.9464   -4.2078 H   0  0  0  0  0  0  0  0  0  0  0  0
   -3.7106    0.3747   -4.3543 H   0  0  0  0  0  0  0  0  0  0  0  0
   -4.1554   -0.0815   -1.9579 H   0  0  0  0  0  0  0  0  0  0  0  0
   -4.9781    1.4901   -1.8114 H   0  0  0  0  0  0  0  0  0  0  0  0
   -3.0735    4.3514   -0.4557 H   0  0  0  0  0  0  0  0  0  0  0  0
   -2.0270    8.0284   -1.5781 H   0  0  0  0  0  0  0  0  0  0  0  0
   -3.3540    8.9107   -0.7879 H   0  0  0  0  0  0  0  0  0  0  0  0
   -0.8837    9.6775   -0.1267 H   0  0  0  0  0  0  0  0  0  0  0  0
   -0.6514    9.1758    2.1133 H   0  0  0  0  0  0  0  0  0  0  0  0
   -1.5837    6.6896    2.4006 H   0  0  0  0  0  0  0  0  0  0  0  0
   -2.4983    7.9652    3.2346 H   0  0  0  0  0  0  0  0  0  0  0  0
    2.6022    1.1832    0.9071 H   0  0  0  0  0  0  0  0  0  0  0  0
    3.2084    2.6174    0.0438 H   0  0  0  0  0  0  0  0  0  0  0  0
    3.9507    0.9489   -1.4038 H   0  0  0  0  0  0  0  0  0  0  0  0
    2.3328    1.2385   -2.0926 H   0  0  0  0  0  0  0  0  0  0  0  0
    3.3088   -1.0386   -0.3797 H   0  0  0  0  0  0  0  0  0  0  0  0
    2.2756   -1.0755   -1.8256 H   0  0  0  0  0  0  0  0  0  0  0  0
    1.4438   -0.0079    0.9053 H   0  0  0  0  0  0  0  0  0  0  0  0
    1.0032   -1.5989    0.2492 H   0  0  0  0  0  0  0  0  0  0  0  0
   -0.8652   -0.3983   -0.3833 H   0  0  0  0  0  0  0  0  0  0  0  0
    0.1624   -0.1098   -1.8066 H   0  0  0  0  0  0  0  0  0  0  0  0
   -4.5523    6.0224    3.2897 O   0  5  0  0  0  0  0  0  0  0  0  0
  1  2  1  0  0  0  0
  1 30  1  0  0  0  0
  1 31  1  0  0  0  0
  1 32  1  0  0  0  0
  2  3  1  0  0  0  0
  2 33  1  0  0  0  0
  2 34  1  0  0  0  0
  3  4  1  0  0  0  0
  3 35  1  0  0  0  0
  3 36  1  0  0  0  0
  4  5  1  0  0  0  0
  5  6  2  0  0  0  0
  5  7  1  0  0  0  0
  7 11  2  0  0  0  0
  7  8  1  0  0  0  0
  8 29  1  0  0  0  0
  8  9  2  0  0  0  0
  9 10  1  0  0  0  0
  9 25  1  0  0  0  0
 10 11  1  0  0  0  0
 11 12  1  0  0  0  0
 12 13  1  0  0  0  0
 12 37  1  0  0  0  0
 13 14  2  0  0  0  0
 13 15  1  0  0  0  0
 15 16  1  0  0  0  0
 15 21  1  0  0  0  0
 15 17  1  0  0  0  0
 17 18  1  0  0  0  0
 17 38  1  0  0  0  0
 17 39  1  0  0  0  0
 18 19  2  0  0  0  0
 18 40  1  0  0  0  0
 19 20  1  0  0  0  0
 19 41  1  0  0  0  0
 20 21  1  0  0  0  0
 20 42  1  0  0  0  0
 20 43  1  0  0  0  0
 21 22  1  0  0  0  0
 21 23  1  0  0  0  0
 23 24  2  0  0  0  0
 23 54  1  0  0  0  0
 25 26  1  0  0  0  0
 25 44  1  0  0  0  0
 25 45  1  0  0  0  0
 26 27  1  0  0  0  0
 26 46  1  0  0  0  0
 26 47  1  0  0  0  0
 27 28  1  0  0  0  0
 27 48  1  0  0  0  0
 27 49  1  0  0  0  0
 28 29  1  0  0  0  0
 28 50  1  0  0  0  0
 28 51  1  0  0  0  0
 29 52  1  0  0  0  0
 29 53  1  0  0  0  0
M  CHG  1  54  -1
M  END
$$$$
ZINC03634298
  -OEChem-08230709463D

 56 58  0     1  0  0  0  0  0999 V2000
    1.4216    1.6182   -0.0028 C   0  0  0  0  0  0  0  0  0  0  0  0
   -0.0127    1.0858    0.0080 C   0  0  1  0  0  0  0  0  0  0  0  0
    0.0021   -0.0041    0.0020 H   0  0  0  0  0  0  0  0  0  0  0  0
   -0.7352    1.5825    1.2637 C   0  0  0  0  0  0  0  0  0  0  0  0
   -2.0787    0.8598    1.4074 C   0  0  0  0  0  0  0  0  0  0  0  0
   -2.8501    0.9895    0.0997 C   0  0  0  0  0  0  0  0  0  0  0  0
   -2.2214    1.3201   -1.0488 C   0  0  0  0  0  0  0  0  0  0  0  0
   -3.5002    1.3509   -2.2727 S   0  0  0  0  0  0  0  0  0  0  0  0
   -4.8528    0.9298   -1.2751 C   0  0  0  0  0  0  0  0  0  0  0  0
   -4.2828    0.7755   -0.0182 C   0  0  0  0  0  0  0  0  0  0  0  0
   -5.0949    0.4115    1.1447 C   0  0  0  0  0  0  0  0  0  0  0  0
   -5.6010    1.2804    1.8291 O   0  0  0  0  0  0  0  0  0  0  0  0
   -5.2815   -0.8873    1.4570 O   0  0  0  0  0  0  0  0  0  0  0  0
   -6.0978   -1.1742    2.6231 C   0  0  0  0  0  0  0  0  0  0  0  0
   -6.8097   -2.5147    2.4300 C   0  0  0  0  0  0  0  0  0  0  0  0
   -5.2066   -1.2442    3.8648 C   0  0  0  0  0  0  0  0  0  0  0  0
   -6.1813    0.7834   -1.6423 N   0  0  0  0  0  0  0  0  0  0  0  0
   -6.5514    0.9755   -2.9239 C   0  0  0  0  0  0  0  0  0  0  0  0
   -5.7219    1.2763   -3.7560 O   0  0  0  0  0  0  0  0  0  0  0  0
   -7.9958    0.8163   -3.3231 C   0  0  1  0  0  0  0  0  0  0  0  0
   -8.3235   -0.1999   -3.1039 H   0  0  0  0  0  0  0  0  0  0  0  0
   -8.8544    1.8097   -2.5377 C   0  0  0  0  0  0  0  0  0  0  0  0
  -10.3209    1.6481   -2.9430 C   0  0  0  0  0  0  0  0  0  0  0  0
  -10.4688    1.9196   -4.4414 C   0  0  0  0  0  0  0  0  0  0  0  0
   -9.6102    0.9262   -5.2268 C   0  0  0  0  0  0  0  0  0  0  0  0
   -8.1437    1.0878   -4.8216 C   0  0  2  0  0  0  0  0  0  0  0  0
   -7.8160    2.1040   -5.0408 H   0  0  0  0  0  0  0  0  0  0  0  0
   -7.2980    0.1093   -5.5952 C   0  0  0  0  0  0  0  0  0  0  0  0
   -6.6441   -0.7200   -5.0083 O   0  0  0  0  0  0  0  0  0  0  0  0
   -0.7610    1.5973   -1.2316 C   0  0  0  0  0  0  0  0  0  0  0  0
    1.4047    2.7081    0.0032 H   0  0  0  0  0  0  0  0  0  0  0  0
    1.9495    1.2582    0.8802 H   0  0  0  0  0  0  0  0  0  0  0  0
    1.9325    1.2677   -0.8996 H   0  0  0  0  0  0  0  0  0  0  0  0
   -0.1174    1.3837    2.1394 H   0  0  0  0  0  0  0  0  0  0  0  0
   -0.9092    2.6553    1.1808 H   0  0  0  0  0  0  0  0  0  0  0  0
   -2.6518    1.3130    2.2162 H   0  0  0  0  0  0  0  0  0  0  0  0
   -1.9068   -0.1939    1.6273 H   0  0  0  0  0  0  0  0  0  0  0  0
   -6.8383   -0.3847    2.7514 H   0  0  0  0  0  0  0  0  0  0  0  0
   -6.0692   -3.3042    2.3017 H   0  0  0  0  0  0  0  0  0  0  0  0
   -7.4224   -2.7301    3.3054 H   0  0  0  0  0  0  0  0  0  0  0  0
   -7.4446   -2.4648    1.5454 H   0  0  0  0  0  0  0  0  0  0  0  0
   -4.4661   -2.0337    3.7365 H   0  0  0  0  0  0  0  0  0  0  0  0
   -4.6995   -0.2892    4.0023 H   0  0  0  0  0  0  0  0  0  0  0  0
   -5.8194   -1.4596    4.7401 H   0  0  0  0  0  0  0  0  0  0  0  0
   -6.8447    0.5427   -0.9768 H   0  0  0  0  0  0  0  0  0  0  0  0
   -8.7490    1.6163   -1.4702 H   0  0  0  0  0  0  0  0  0  0  0  0
   -8.5267    2.8259   -2.7569 H   0  0  0  0  0  0  0  0  0  0  0  0
  -10.9326    2.3558   -2.3834 H   0  0  0  0  0  0  0  0  0  0  0  0
  -10.6486    0.6320   -2.7237 H   0  0  0  0  0  0  0  0  0  0  0  0
  -10.1411    2.9358   -4.6606 H   0  0  0  0  0  0  0  0  0  0  0  0
  -11.5135    1.8045   -4.7301 H   0  0  0  0  0  0  0  0  0  0  0  0
   -9.7155    1.1196   -6.2944 H   0  0  0  0  0  0  0  0  0  0  0  0
   -9.9379   -0.0900   -5.0076 H   0  0  0  0  0  0  0  0  0  0  0  0
   -0.6016    2.6701   -1.3400 H   0  0  0  0  0  0  0  0  0  0  0  0
   -0.3969    1.0804   -2.1195 H   0  0  0  0  0  0  0  0  0  0  0  0
   -7.2712    0.1591   -6.9363 O   0  5  0  0  0  0  0  0  0  0  0  0
  1  2  1  0  0  0  0
  1 31  1  0  0  0  0
  1 32  1  0  0  0  0
  1 33  1  0  0  0  0
  2  3  1  0  0  0  0
  2 30  1  0  0  0  0
  2  4  1  0  0  0  0
  4  5  1  0  0  0  0
  4 34  1  0  0  0  0
  4 35  1  0  0  0  0
  5  6  1  0  0  0  0
  5 36  1  0  0  0  0
  5 37  1  0  0  0  0
  6 10  1  0  0  0  0
  6  7  2  0  0  0  0
  7  8  1  0  0  0  0
  7 30  1  0  0  0  0
  8  9  1  0  0  0  0
  9 10  2  0  0  0  0
  9 17  1  0  0  0  0
 10 11  1  0  0  0  0
 11 12  2  0  0  0  0
 11 13  1  0  0  0  0
 13 14  1  0  0  0  0
 14 15  1  0  0  0  0
 14 16  1  0  0  0  0
 14 38  1  0  0  0  0
 15 39  1  0  0  0  0
 15 40  1  0  0  0  0
 15 41  1  0  0  0  0
 16 42  1  0  0  0  0
 16 43  1  0  0  0  0
 16 44  1  0  0  0  0
 17 18  1  0  0  0  0
 17 45  1  0  0  0  0
 18 19  2  0  0  0  0
 18 20  1  0  0  0  0
 20 21  1  0  0  0  0
 20 26  1  0  0  0  0
 20 22  1  0  0  0  0
 22 23  1  0  0  0  0
 22 46  1  0  0  0  0
 22 47  1  0  0  0  0
 23 24  1  0  0  0  0
 23 48  1  0  0  0  0
 23 49  1  0  0  0  0
 24 25  1  0  0  0  0
 24 50  1  0  0  0  0
 24 51  1  0  0  0  0
 25 26  1  0  0  0  0
 25 52  1  0  0  0  0
 25 53  1  0  0  0  0
 26 27  1  0  0  0  0
 26 28  1  0  0  0  0
 28 29  2  0  0  0  0
 28 56  1  0  0  0  0
 30 54  1  0  0  0  0
 30 55  1  0  0  0  0
M  CHG  1  56  -1
M  END
$$$$
ZINC03634380
  -OEChem-08230709463D

 55 56  0     0  0  0  0  0  0999 V2000
   -3.7152    6.2051   -3.3601 C   0  0  0  0  0  0  0  0  0  0  0  0
   -3.3818    4.8749   -2.8826 O   0  0  0  0  0  0  0  0  0  0  0  0
   -2.1733    4.3855   -3.2278 C   0  0  0  0  0  0  0  0  0  0  0  0
   -1.4188    5.0531   -3.9095 O   0  0  0  0  0  0  0  0  0  0  0  0
   -1.7694    3.0504   -2.7818 C   0  0  0  0  0  0  0  0  0  0  0  0
   -1.0725    2.8473   -1.5335 C   0  0  0  0  0  0  0  0  0  0  0  0
   -0.7398    1.5842   -1.2143 C   0  0  0  0  0  0  0  0  0  0  0  0
   -1.3654    0.6361   -2.5864 S   0  0  0  0  0  0  0  0  0  0  0  0
   -2.0379    1.9154   -3.5401 C   0  0  0  0  0  0  0  0  0  0  0  0
   -2.6860    1.8294   -4.7623 N   0  0  0  0  0  0  0  0  0  0  0  0
   -2.8557    0.6296   -5.3522 C   0  0  0  0  0  0  0  0  0  0  0  0
   -2.4414   -0.3750   -4.8135 O   0  0  0  0  0  0  0  0  0  0  0  0
   -3.5603    0.5361   -6.6810 C   0  0  0  0  0  0  0  0  0  0  0  0
   -3.6192   -0.9267   -7.1254 C   0  0  0  0  0  0  0  0  0  0  0  0
   -4.3238   -1.0202   -8.4542 C   0  0  0  0  0  0  0  0  0  0  0  0
   -4.7365   -0.0194   -8.9908 O   0  0  0  0  0  0  0  0  0  0  0  0
   -0.0127    1.0858    0.0080 C   0  0  0  0  0  0  0  0  0  0  0  0
   -0.7268    1.5782    1.2679 C   0  0  0  0  0  0  0  0  0  0  0  0
    0.1057    1.2090    2.4994 C   0  0  0  0  0  0  0  0  0  0  0  0
    0.3774    2.4665    3.3277 C   0  0  0  0  0  0  0  0  0  0  0  0
    1.4615    3.3035    2.6452 C   0  0  0  0  0  0  0  0  0  0  0  0
    0.8849    4.6662    2.2560 C   0  0  0  0  0  0  0  0  0  0  0  0
    1.8096    5.3399    1.2406 C   0  0  0  0  0  0  0  0  0  0  0  0
    1.0213    5.6724   -0.0272 C   0  0  0  0  0  0  0  0  0  0  0  0
    0.7335    4.3847   -0.8024 C   0  0  0  0  0  0  0  0  0  0  0  0
   -0.7378    4.0037   -0.6269 C   0  0  0  0  0  0  0  0  0  0  0  0
   -2.9887    6.9214   -2.9765 H   0  0  0  0  0  0  0  0  0  0  0  0
   -3.6953    6.2155   -4.4498 H   0  0  0  0  0  0  0  0  0  0  0  0
   -4.7118    6.4767   -3.0122 H   0  0  0  0  0  0  0  0  0  0  0  0
   -3.0174    2.6329   -5.1931 H   0  0  0  0  0  0  0  0  0  0  0  0
   -4.5731    0.9273   -6.5836 H   0  0  0  0  0  0  0  0  0  0  0  0
   -3.0153    1.1196   -7.4231 H   0  0  0  0  0  0  0  0  0  0  0  0
   -2.6064   -1.3179   -7.2228 H   0  0  0  0  0  0  0  0  0  0  0  0
   -4.1642   -1.5102   -6.3833 H   0  0  0  0  0  0  0  0  0  0  0  0
    0.0021   -0.0041    0.0020 H   0  0  0  0  0  0  0  0  0  0  0  0
    1.0101    1.4624    0.0003 H   0  0  0  0  0  0  0  0  0  0  0  0
   -0.8443    2.6608    1.2196 H   0  0  0  0  0  0  0  0  0  0  0  0
   -1.7081    1.1086    1.3365 H   0  0  0  0  0  0  0  0  0  0  0  0
    1.0522    0.7721    2.1812 H   0  0  0  0  0  0  0  0  0  0  0  0
   -0.4425    0.4869    3.1046 H   0  0  0  0  0  0  0  0  0  0  0  0
    0.7135    2.1796    4.3241 H   0  0  0  0  0  0  0  0  0  0  0  0
   -0.5377    3.0533    3.4081 H   0  0  0  0  0  0  0  0  0  0  0  0
    1.8095    2.7873    1.7504 H   0  0  0  0  0  0  0  0  0  0  0  0
    2.2968    3.4449    3.3310 H   0  0  0  0  0  0  0  0  0  0  0  0
    0.8024    5.2928    3.1440 H   0  0  0  0  0  0  0  0  0  0  0  0
   -0.1023    4.5302    1.8142 H   0  0  0  0  0  0  0  0  0  0  0  0
    2.6291    4.6655    0.9923 H   0  0  0  0  0  0  0  0  0  0  0  0
    2.2122    6.2578    1.6691 H   0  0  0  0  0  0  0  0  0  0  0  0
    1.6053    6.3491   -0.6511 H   0  0  0  0  0  0  0  0  0  0  0  0
    0.0804    6.1504    0.2452 H   0  0  0  0  0  0  0  0  0  0  0  0
    1.3648    3.5821   -0.4212 H   0  0  0  0  0  0  0  0  0  0  0  0
    0.9445    4.5423   -1.8601 H   0  0  0  0  0  0  0  0  0  0  0  0
   -1.3665    4.8573   -0.8804 H   0  0  0  0  0  0  0  0  0  0  0  0
   -0.9172    3.7163    0.4091 H   0  0  0  0  0  0  0  0  0  0  0  0
   -4.4928   -2.2152   -9.0417 O   0  5  0  0  0  0  0  0  0  0  0  0
  1  2  1  0  0  0  0
  1 27  1  0  0  0  0
  1 28  1  0  0  0  0
  1 29  1  0  0  0  0
  2  3  1  0  0  0  0
  3  4  2  0  0  0  0
  3  5  1  0  0  0  0
  5  9  2  0  0  0  0
  5  6  1  0  0  0  0
  6 26  1  0  0  0  0
  6  7  2  0  0  0  0
  7  8  1  0  0  0  0
  7 17  1  0  0  0  0
  8  9  1  0  0  0  0
  9 10  1  0  0  0  0
 10 11  1  0  0  0  0
 10 30  1  0  0  0  0
 11 12  2  0  0  0  0
 11 13  1  0  0  0  0
 13 14  1  0  0  0  0
 13 31  1  0  0  0  0
 13 32  1  0  0  0  0
 14 15  1  0  0  0  0
 14 33  1  0  0  0  0
 14 34  1  0  0  0  0
 15 16  2  0  0  0  0
 15 55  1  0  0  0  0
 17 18  1  0  0  0  0
 17 35  1  0  0  0  0
 17 36  1  0  0  0  0
 18 19  1  0  0  0  0
 18 37  1  0  0  0  0
 18 38  1  0  0  0  0
 19 20  1  0  0  0  0
 19 39  1  0  0  0  0
 19 40  1  0  0  0  0
 20 21  1  0  0  0  0
 20 41  1  0  0  0  0
 20 42  1  0  0  0  0
 21 22  1  0  0  0  0
 21 43  1  0  0  0  0
 21 44  1  0  0  0  0
 22 23  1  0  0  0  0
 22 45  1  0  0  0  0
 22 46  1  0  0  0  0
 23 24  1  0  0  0  0
 23 47  1  0  0  0  0
 23 48  1  0  0  0  0
 24 25  1  0  0  0  0
 24 49  1  0  0  0  0
 24 50  1  0  0  0  0
 25 26  1  0  0  0  0
 25 51  1  0  0  0  0
 25 52  1  0  0  0  0
 26 53  1  0  0  0  0
 26 54  1  0  0  0  0
M  CHG  1  55  -1
M  END
$$$$
ZINC03634505
  -OEChem-08230709463D

 53 55  0     1  0  0  0  0  0999 V2000
  -11.0448    2.8315    2.6899 C   0  0  0  0  0  0  0  0  0  0  0  0
   -9.8902    2.1123    3.3384 C   0  0  0  0  0  0  0  0  0  0  0  0
   -9.6507    0.7830    3.0439 C   0  0  0  0  0  0  0  0  0  0  0  0
   -8.5918    0.1232    3.6391 C   0  0  0  0  0  0  0  0  0  0  0  0
   -7.7719    0.7927    4.5281 C   0  0  0  0  0  0  0  0  0  0  0  0
   -8.0143    2.1206    4.8262 C   0  0  0  0  0  0  0  0  0  0  0  0
   -9.0708    2.7816    4.2281 C   0  0  0  0  0  0  0  0  0  0  0  0
   -6.6175    0.0734    5.1769 C   0  0  0  0  0  0  0  0  0  0  0  0
   -5.4212    0.2187    4.3438 N   0  0  0  0  0  0  0  0  0  0  0  0
   -5.0376   -0.6160    3.3434 C   0  0  0  0  0  0  0  0  0  0  0  0
   -3.8795   -0.1313    2.8270 C   0  0  0  0  0  0  0  0  0  0  0  0
   -3.5523    1.0381    3.5288 C   0  0  0  0  0  0  0  0  0  0  0  0
   -4.4736    1.2462    4.4341 N   0  0  0  0  0  0  0  0  0  0  0  0
   -2.3461    1.9070    3.2818 C   0  0  0  0  0  0  0  0  0  0  0  0
   -3.1413   -0.6984    1.7711 N   0  0  0  0  0  0  0  0  0  0  0  0
   -2.9172    0.0121    0.6479 C   0  0  0  0  0  0  0  0  0  0  0  0
   -3.4255    1.1049    0.5099 O   0  0  0  0  0  0  0  0  0  0  0  0
   -2.0351   -0.5510   -0.4364 C   0  0  2  0  0  0  0  0  0  0  0  0
   -2.4572   -1.4886   -0.7979 H   0  0  0  0  0  0  0  0  0  0  0  0
   -0.6350   -0.8052    0.1258 C   0  0  0  0  0  0  0  0  0  0  0  0
    0.2606   -1.3768   -0.9752 C   0  0  0  0  0  0  0  0  0  0  0  0
    0.3487   -0.3781   -2.1309 C   0  0  0  0  0  0  0  0  0  0  0  0
   -1.0514   -0.1239   -2.6931 C   0  0  0  0  0  0  0  0  0  0  0  0
   -1.9470    0.4477   -1.5922 C   0  0  1  0  0  0  0  0  0  0  0  0
   -1.5248    1.3854   -1.2307 H   0  0  0  0  0  0  0  0  0  0  0  0
   -3.3260    0.6981   -2.1459 C   0  0  0  0  0  0  0  0  0  0  0  0
   -4.2807    0.1317   -1.6687 O   0  0  0  0  0  0  0  0  0  0  0  0
   -5.7639   -1.8566    2.8911 C   0  0  0  0  0  0  0  0  0  0  0  0
  -11.9349    2.7227    3.3097 H   0  0  0  0  0  0  0  0  0  0  0  0
  -10.8018    3.8889    2.5856 H   0  0  0  0  0  0  0  0  0  0  0  0
  -11.2330    2.4031    1.7055 H   0  0  0  0  0  0  0  0  0  0  0  0
  -10.2910    0.2600    2.3491 H   0  0  0  0  0  0  0  0  0  0  0  0
   -8.4049   -0.9154    3.4093 H   0  0  0  0  0  0  0  0  0  0  0  0
   -7.3763    2.6425    5.5241 H   0  0  0  0  0  0  0  0  0  0  0  0
   -9.2582    3.8200    4.4585 H   0  0  0  0  0  0  0  0  0  0  0  0
   -6.8610   -0.9839    5.2818 H   0  0  0  0  0  0  0  0  0  0  0  0
   -6.4291    0.5022    6.1611 H   0  0  0  0  0  0  0  0  0  0  0  0
   -2.6574    2.8308    2.7942 H   0  0  0  0  0  0  0  0  0  0  0  0
   -1.8665    2.1415    4.2321 H   0  0  0  0  0  0  0  0  0  0  0  0
   -1.6418    1.3771    2.6404 H   0  0  0  0  0  0  0  0  0  0  0  0
   -2.7940   -1.6005    1.8517 H   0  0  0  0  0  0  0  0  0  0  0  0
   -0.2128    0.1325    0.4872 H   0  0  0  0  0  0  0  0  0  0  0  0
   -0.6977   -1.5167    0.9491 H   0  0  0  0  0  0  0  0  0  0  0  0
    1.2581   -1.5579   -0.5747 H   0  0  0  0  0  0  0  0  0  0  0  0
   -0.1615   -2.3145   -1.3366 H   0  0  0  0  0  0  0  0  0  0  0  0
    0.7708    0.5595   -1.7695 H   0  0  0  0  0  0  0  0  0  0  0  0
    0.9867   -0.7854   -2.9152 H   0  0  0  0  0  0  0  0  0  0  0  0
   -1.4736   -1.0616   -3.0545 H   0  0  0  0  0  0  0  0  0  0  0  0
   -0.9887    0.5875   -3.5165 H   0  0  0  0  0  0  0  0  0  0  0  0
   -5.4036   -2.7153    3.4575 H   0  0  0  0  0  0  0  0  0  0  0  0
   -6.8337   -1.7331    3.0596 H   0  0  0  0  0  0  0  0  0  0  0  0
   -5.5796   -2.0186    1.8291 H   0  0  0  0  0  0  0  0  0  0  0  0
   -3.4931    1.5461   -3.1729 O   0  5  0  0  0  0  0  0  0  0  0  0
  1  2  1  0  0  0  0
  1 29  1  0  0  0  0
  1 30  1  0  0  0  0
  1 31  1  0  0  0  0
  2  7  2  0  0  0  0
  2  3  1  0  0  0  0
  3  4  2  0  0  0  0
  3 32  1  0  0  0  0
  4  5  1  0  0  0  0
  4 33  1  0  0  0  0
  5  6  2  0  0  0  0
  5  8  1  0  0  0  0
  6  7  1  0  0  0  0
  6 34  1  0  0  0  0
  7 35  1  0  0  0  0
  8  9  1  0  0  0  0
  8 36  1  0  0  0  0
  8 37  1  0  0  0  0
  9 13  1  0  0  0  0
  9 10  1  0  0  0  0
 10 11  2  0  0  0  0
 10 28  1  0  0  0  0
 11 12  1  0  0  0  0
 11 15  1  0  0  0  0
 12 13  2  0  0  0  0
 12 14  1  0  0  0  0
 14 38  1  0  0  0  0
 14 39  1  0  0  0  0
 14 40  1  0  0  0  0
 15 16  1  0  0  0  0
 15 41  1  0  0  0  0
 16 17  2  0  0  0  0
 16 18  1  0  0  0  0
 18 19  1  0  0  0  0
 18 24  1  0  0  0  0
 18 20  1  0  0  0  0
 20 21  1  0  0  0  0
 20 42  1  0  0  0  0
 20 43  1  0  0  0  0
 21 22  1  0  0  0  0
 21 44  1  0  0  0  0
 21 45  1  0  0  0  0
 22 23  1  0  0  0  0
 22 46  1  0  0  0  0
 22 47  1  0  0  0  0
 23 24  1  0  0  0  0
 23 48  1  0  0  0  0
 23 49  1  0  0  0  0
 24 25  1  0  0  0  0
 24 26  1  0  0  0  0
 26 27  2  0  0  0  0
 26 53  1  0  0  0  0
 28 50  1  0  0  0  0
 28 51  1  0  0  0  0
 28 52  1  0  0  0  0
M  CHG  1  53  -1
M  END
$$$$
ZINC03634507
  -OEChem-08230709463D

 53 55  0     1  0  0  0  0  0999 V2000
    4.3386    9.0910   -4.7634 C   0  0  0  0  0  0  0  0  0  0  0  0
    3.8622    8.5217   -3.4520 C   0  0  0  0  0  0  0  0  0  0  0  0
    2.6481    8.9210   -2.9253 C   0  0  0  0  0  0  0  0  0  0  0  0
    2.2107    8.3981   -1.7228 C   0  0  0  0  0  0  0  0  0  0  0  0
    2.9872    7.4754   -1.0471 C   0  0  0  0  0  0  0  0  0  0  0  0
    4.2037    7.0799   -1.5711 C   0  0  0  0  0  0  0  0  0  0  0  0
    4.6391    7.5996   -2.7758 C   0  0  0  0  0  0  0  0  0  0  0  0
    2.5104    6.9052    0.2638 C   0  0  0  0  0  0  0  0  0  0  0  0
    1.7247    5.6945    0.0128 N   0  0  0  0  0  0  0  0  0  0  0  0
    2.2088    4.4274   -0.0558 C   0  0  0  0  0  0  0  0  0  0  0  0
    1.1605    3.6012   -0.3032 C   0  0  0  0  0  0  0  0  0  0  0  0
    0.0041    4.3896   -0.3937 C   0  0  0  0  0  0  0  0  0  0  0  0
    0.3412    5.6386   -0.1988 N   0  0  0  0  0  0  0  0  0  0  0  0
   -1.3895    3.8839   -0.6646 C   0  0  0  0  0  0  0  0  0  0  0  0
    1.2238    2.2025   -0.4490 N   0  0  0  0  0  0  0  0  0  0  0  0
    0.5189    1.4061    0.3789 C   0  0  0  0  0  0  0  0  0  0  0  0
   -0.1191    1.8911    1.2896 O   0  0  0  0  0  0  0  0  0  0  0  0
    0.5182   -0.0862    0.1695 C   0  0  1  0  0  0  0  0  0  0  0  0
    0.1187   -0.3143   -0.8187 H   0  0  0  0  0  0  0  0  0  0  0  0
    1.9493   -0.6168    0.2759 C   0  0  0  0  0  0  0  0  0  0  0  0
    1.9487   -2.1319    0.0632 C   0  0  0  0  0  0  0  0  0  0  0  0
    1.0777   -2.7964    1.1313 C   0  0  0  0  0  0  0  0  0  0  0  0
   -0.3534   -2.2659    1.0248 C   0  0  0  0  0  0  0  0  0  0  0  0
   -0.3528   -0.7508    1.2375 C   0  0  2  0  0  0  0  0  0  0  0  0
    0.0467   -0.5227    2.2257 H   0  0  0  0  0  0  0  0  0  0  0  0
   -1.7624   -0.2282    1.1326 C   0  0  0  0  0  0  0  0  0  0  0  0
   -2.0417    0.5916    0.2901 O   0  0  0  0  0  0  0  0  0  0  0  0
    3.6483    4.0139    0.1116 C   0  0  0  0  0  0  0  0  0  0  0  0
    4.9226    9.9924   -4.5775 H   0  0  0  0  0  0  0  0  0  0  0  0
    4.9590    8.3552   -5.2750 H   0  0  0  0  0  0  0  0  0  0  0  0
    3.4787    9.3373   -5.3863 H   0  0  0  0  0  0  0  0  0  0  0  0
    2.0411    9.6414   -3.4536 H   0  0  0  0  0  0  0  0  0  0  0  0
    1.2621    8.7101   -1.3114 H   0  0  0  0  0  0  0  0  0  0  0  0
    4.8124    6.3624   -1.0410 H   0  0  0  0  0  0  0  0  0  0  0  0
    5.5875    7.2874   -3.1874 H   0  0  0  0  0  0  0  0  0  0  0  0
    1.8903    7.6410    0.7760 H   0  0  0  0  0  0  0  0  0  0  0  0
    3.3700    6.6579    0.8867 H   0  0  0  0  0  0  0  0  0  0  0  0
   -1.9721    3.9134    0.2561 H   0  0  0  0  0  0  0  0  0  0  0  0
   -1.8651    4.5143   -1.4159 H   0  0  0  0  0  0  0  0  0  0  0  0
   -1.3392    2.8582   -1.0300 H   0  0  0  0  0  0  0  0  0  0  0  0
    1.7747    1.8119   -1.1452 H   0  0  0  0  0  0  0  0  0  0  0  0
    2.5699   -0.1434   -0.4850 H   0  0  0  0  0  0  0  0  0  0  0  0
    2.3488   -0.3887    1.2641 H   0  0  0  0  0  0  0  0  0  0  0  0
    2.9683   -2.5099    0.1391 H   0  0  0  0  0  0  0  0  0  0  0  0
    1.5492   -2.3600   -0.9249 H   0  0  0  0  0  0  0  0  0  0  0  0
    1.4772   -2.5684    2.1194 H   0  0  0  0  0  0  0  0  0  0  0  0
    1.0772   -3.8759    0.9798 H   0  0  0  0  0  0  0  0  0  0  0  0
   -0.9740   -2.7393    1.7857 H   0  0  0  0  0  0  0  0  0  0  0  0
   -0.7529   -2.4939    0.0366 H   0  0  0  0  0  0  0  0  0  0  0  0
    4.1452    4.0266   -0.8585 H   0  0  0  0  0  0  0  0  0  0  0  0
    4.1497    4.7083    0.7858 H   0  0  0  0  0  0  0  0  0  0  0  0
    3.6911    3.0077    0.5286 H   0  0  0  0  0  0  0  0  0  0  0  0
   -2.7077   -0.6735    1.9752 O   0  5  0  0  0  0  0  0  0  0  0  0
  1  2  1  0  0  0  0
  1 29  1  0  0  0  0
  1 30  1  0  0  0  0
  1 31  1  0  0  0  0
  2  7  2  0  0  0  0
  2  3  1  0  0  0  0
  3  4  2  0  0  0  0
  3 32  1  0  0  0  0
  4  5  1  0  0  0  0
  4 33  1  0  0  0  0
  5  6  2  0  0  0  0
  5  8  1  0  0  0  0
  6  7  1  0  0  0  0
  6 34  1  0  0  0  0
  7 35  1  0  0  0  0
  8  9  1  0  0  0  0
  8 36  1  0  0  0  0
  8 37  1  0  0  0  0
  9 13  1  0  0  0  0
  9 10  1  0  0  0  0
 10 11  2  0  0  0  0
 10 28  1  0  0  0  0
 11 12  1  0  0  0  0
 11 15  1  0  0  0  0
 12 13  2  0  0  0  0
 12 14  1  0  0  0  0
 14 38  1  0  0  0  0
 14 39  1  0  0  0  0
 14 40  1  0  0  0  0
 15 16  1  0  0  0  0
 15 41  1  0  0  0  0
 16 17  2  0  0  0  0
 16 18  1  0  0  0  0
 18 19  1  0  0  0  0
 18 24  1  0  0  0  0
 18 20  1  0  0  0  0
 20 21  1  0  0  0  0
 20 42  1  0  0  0  0
 20 43  1  0  0  0  0
 21 22  1  0  0  0  0
 21 44  1  0  0  0  0
 21 45  1  0  0  0  0
 22 23  1  0  0  0  0
 22 46  1  0  0  0  0
 22 47  1  0  0  0  0
 23 24  1  0  0  0  0
 23 48  1  0  0  0  0
 23 49  1  0  0  0  0
 24 25  1  0  0  0  0
 24 26  1  0  0  0  0
 26 27  2  0  0  0  0
 26 53  1  0  0  0  0
 28 50  1  0  0  0  0
 28 51  1  0  0  0  0
 28 52  1  0  0  0  0
M  CHG  1  53  -1
M  END
$$$$
ZINC03634533
  -OEChem-08230709463D

 54 57  0     1  0  0  0  0  0999 V2000
  -10.0649   -2.6226    8.4870 C   0  0  0  0  0  0  0  0  0  0  0  0
   -8.8868   -1.9587    7.8220 C   0  0  0  0  0  0  0  0  0  0  0  0
   -9.0442   -1.3493    6.5899 C   0  0  0  0  0  0  0  0  0  0  0  0
   -7.9692   -0.7399    5.9762 C   0  0  0  0  0  0  0  0  0  0  0  0
   -6.7221   -0.7394    6.6000 C   0  0  0  0  0  0  0  0  0  0  0  0
   -6.5681   -1.3604    7.8386 C   0  0  0  0  0  0  0  0  0  0  0  0
   -7.6522   -1.9614    8.4456 C   0  0  0  0  0  0  0  0  0  0  0  0
   -7.4888   -2.6277    9.7874 C   0  0  0  0  0  0  0  0  0  0  0  0
   -5.5633   -0.0864    5.9459 C   0  0  0  0  0  0  0  0  0  0  0  0
   -4.7777    0.8000    6.6090 C   0  0  0  0  0  0  0  0  0  0  0  0
   -3.5636    1.2623    5.3914 S   0  0  0  0  0  0  0  0  0  0  0  0
   -4.1084    0.3060    4.0554 C   0  0  0  0  0  0  0  0  0  0  0  0
   -5.2133   -0.3628    4.5654 C   0  0  0  0  0  0  0  0  0  0  0  0
   -5.9867   -1.2997    3.7506 C   0  0  0  0  0  0  0  0  0  0  0  0
   -5.6855   -2.4781    3.7276 O   0  0  0  0  0  0  0  0  0  0  0  0
   -7.0339   -0.8569    3.0246 O   0  0  0  0  0  0  0  0  0  0  0  0
   -7.7556   -1.8425    2.2397 C   0  0  0  0  0  0  0  0  0  0  0  0
   -3.5674    0.2230    2.7824 N   0  0  0  0  0  0  0  0  0  0  0  0
   -2.4808    0.9537    2.4629 C   0  0  0  0  0  0  0  0  0  0  0  0
   -1.9766    1.6838    3.2897 O   0  0  0  0  0  0  0  0  0  0  0  0
   -1.8925    0.8634    1.0785 C   0  0  2  0  0  0  0  0  0  0  0  0
   -1.5657   -0.1552    0.8692 H   0  0  0  0  0  0  0  0  0  0  0  0
   -0.6843    1.8872    0.9282 C   0  0  1  0  0  0  0  0  0  0  0  0
    0.0039    1.9595    1.7704 H   0  0  0  0  0  0  0  0  0  0  0  0
   -0.0461    1.5085   -0.4431 C   0  0  0  0  0  0  0  0  0  0  0  0
   -1.0861    1.9523   -1.4971 C   0  0  0  0  0  0  0  0  0  0  0  0
   -2.2577    2.5569   -0.6646 C   0  0  2  0  0  0  0  0  0  0  0  0
   -2.9310    3.2233   -1.2037 H   0  0  0  0  0  0  0  0  0  0  0  0
   -1.4656    3.1914    0.5327 C   0  0  0  0  0  0  0  0  0  0  0  0
   -2.9233    1.3262    0.0236 C   0  0  1  0  0  0  0  0  0  0  0  0
   -3.8557    1.6190    0.5064 H   0  0  0  0  0  0  0  0  0  0  0  0
   -3.1723    0.2325   -0.9827 C   0  0  0  0  0  0  0  0  0  0  0  0
   -2.3854   -0.6778   -1.0927 O   0  0  0  0  0  0  0  0  0  0  0  0
  -10.1144   -3.6672    8.1799 H   0  0  0  0  0  0  0  0  0  0  0  0
   -9.9499   -2.5672    9.5695 H   0  0  0  0  0  0  0  0  0  0  0  0
  -10.9827   -2.1135    8.1927 H   0  0  0  0  0  0  0  0  0  0  0  0
  -10.0106   -1.3504    6.1077 H   0  0  0  0  0  0  0  0  0  0  0  0
   -8.0934   -0.2639    5.0147 H   0  0  0  0  0  0  0  0  0  0  0  0
   -5.6035   -1.3669    8.3243 H   0  0  0  0  0  0  0  0  0  0  0  0
   -7.2151   -3.6728    9.6431 H   0  0  0  0  0  0  0  0  0  0  0  0
   -6.7055   -2.1215   10.3515 H   0  0  0  0  0  0  0  0  0  0  0  0
   -8.4278   -2.5707   10.3381 H   0  0  0  0  0  0  0  0  0  0  0  0
   -4.8651    1.1395    7.6306 H   0  0  0  0  0  0  0  0  0  0  0  0
   -8.5713   -1.3552    1.7056 H   0  0  0  0  0  0  0  0  0  0  0  0
   -7.0766   -2.3042    1.5228 H   0  0  0  0  0  0  0  0  0  0  0  0
   -8.1608   -2.6081    2.9014 H   0  0  0  0  0  0  0  0  0  0  0  0
   -3.9706   -0.3610    2.1211 H   0  0  0  0  0  0  0  0  0  0  0  0
    0.1187    0.4326   -0.5014 H   0  0  0  0  0  0  0  0  0  0  0  0
    0.8924    2.0442   -0.5863 H   0  0  0  0  0  0  0  0  0  0  0  0
   -0.6596    2.7076   -2.1572 H   0  0  0  0  0  0  0  0  0  0  0  0
   -1.4311    1.0949   -2.0749 H   0  0  0  0  0  0  0  0  0  0  0  0
   -0.7940    3.9845    0.2039 H   0  0  0  0  0  0  0  0  0  0  0  0
   -2.1292    3.5280    1.3292 H   0  0  0  0  0  0  0  0  0  0  0  0
   -4.2682    0.2696   -1.7569 O   0  5  0  0  0  0  0  0  0  0  0  0
  1  2  1  0  0  0  0
  1 34  1  0  0  0  0
  1 35  1  0  0  0  0
  1 36  1  0  0  0  0
  2  7  2  0  0  0  0
  2  3  1  0  0  0  0
  3  4  2  0  0  0  0
  3 37  1  0  0  0  0
  4  5  1  0  0  0  0
  4 38  1  0  0  0  0
  5  6  2  0  0  0  0
  5  9  1  0  0  0  0
  6  7  1  0  0  0  0
  6 39  1  0  0  0  0
  7  8  1  0  0  0  0
  8 40  1  0  0  0  0
  8 41  1  0  0  0  0
  8 42  1  0  0  0  0
  9 13  1  0  0  0  0
  9 10  2  0  0  0  0
 10 11  1  0  0  0  0
 10 43  1  0  0  0  0
 11 12  1  0  0  0  0
 12 13  2  0  0  0  0
 12 18  1  0  0  0  0
 13 14  1  0  0  0  0
 14 15  2  0  0  0  0
 14 16  1  0  0  0  0
 16 17  1  0  0  0  0
 17 44  1  0  0  0  0
 17 45  1  0  0  0  0
 17 46  1  0  0  0  0
 18 19  1  0  0  0  0
 18 47  1  0  0  0  0
 19 20  2  0  0  0  0
 19 21  1  0  0  0  0
 21 22  1  0  0  0  0
 21 30  1  0  0  0  0
 21 23  1  0  0  0  0
 23 24  1  0  0  0  0
 23 29  1  0  0  0  0
 23 25  1  0  0  0  0
 25 26  1  0  0  0  0
 25 48  1  0  0  0  0
 25 49  1  0  0  0  0
 26 27  1  0  0  0  0
 26 50  1  0  0  0  0
 26 51  1  0  0  0  0
 27 28  1  0  0  0  0
 27 29  1  0  0  0  0
 27 30  1  0  0  0  0
 29 52  1  0  0  0  0
 29 53  1  0  0  0  0
 30 31  1  0  0  0  0
 30 32  1  0  0  0  0
 32 33  2  0  0  0  0
 32 54  1  0  0  0  0
M  CHG  1  54  -1
M  END
$$$$
ZINC03634710
  -OEChem-08230709463D

 52 54  0     0  0  0  0  0  0999 V2000
   -1.0817    0.9293   -8.6522 C   0  0  0  0  0  0  0  0  0  0  0  0
   -0.9463    2.3969   -8.2413 C   0  0  0  0  0  0  0  0  0  0  0  0
   -1.4007    2.5600   -6.8720 O   0  0  0  0  0  0  0  0  0  0  0  0
   -1.3466    3.8029   -6.3533 C   0  0  0  0  0  0  0  0  0  0  0  0
   -0.9310    4.7250   -7.0271 O   0  0  0  0  0  0  0  0  0  0  0  0
   -1.7908    4.0433   -4.9708 C   0  0  0  0  0  0  0  0  0  0  0  0
   -2.2697    2.9839   -4.1927 C   0  0  0  0  0  0  0  0  0  0  0  0
   -2.6812    3.2077   -2.9103 C   0  0  0  0  0  0  0  0  0  0  0  0
   -2.6283    4.4891   -2.3674 C   0  0  0  0  0  0  0  0  0  0  0  0
   -2.1608    5.5521   -3.1277 C   0  0  0  0  0  0  0  0  0  0  0  0
   -1.7352    5.3365   -4.4277 C   0  0  0  0  0  0  0  0  0  0  0  0
   -1.2729    6.3704   -5.1743 O   0  0  0  0  0  0  0  0  0  0  0  0
   -3.0529    4.7064   -1.0542 N   0  0  0  0  0  0  0  0  0  0  0  0
   -2.4343    4.2411    0.0721 C   0  0  0  0  0  0  0  0  0  0  0  0
   -3.1341    4.6596    1.1480 C   0  0  0  0  0  0  0  0  0  0  0  0
   -4.2300    5.4064    0.6824 C   0  0  0  0  0  0  0  0  0  0  0  0
   -4.1647    5.4209   -0.6781 C   0  0  0  0  0  0  0  0  0  0  0  0
   -5.1174    6.0915   -1.5881 C   0  0  0  0  0  0  0  0  0  0  0  0
   -5.9330    7.1201   -1.1132 C   0  0  0  0  0  0  0  0  0  0  0  0
   -6.8163    7.7466   -1.9664 C   0  0  0  0  0  0  0  0  0  0  0  0
   -6.9029    7.3486   -3.2938 C   0  0  0  0  0  0  0  0  0  0  0  0
   -6.0975    6.3221   -3.7687 C   0  0  0  0  0  0  0  0  0  0  0  0
   -5.2078    5.6941   -2.9232 C   0  0  0  0  0  0  0  0  0  0  0  0
   -7.7786    7.9652   -4.1304 O   0  0  0  0  0  0  0  0  0  0  0  0
   -8.5767    9.0131   -3.5765 C   0  0  0  0  0  0  0  0  0  0  0  0
   -1.1795    3.4072    0.1074 C   0  0  0  0  0  0  0  0  0  0  0  0
   -1.5537    1.9262    0.1935 C   0  0  0  0  0  0  0  0  0  0  0  0
   -0.2989    1.0923    0.2287 C   0  0  0  0  0  0  0  0  0  0  0  0
    0.7835    1.6273    0.1841 O   0  0  0  0  0  0  0  0  0  0  0  0
   -0.4750    0.3096   -7.9918 H   0  0  0  0  0  0  0  0  0  0  0  0
   -2.1259    0.6259   -8.5773 H   0  0  0  0  0  0  0  0  0  0  0  0
   -0.7406    0.8068   -9.6802 H   0  0  0  0  0  0  0  0  0  0  0  0
   -1.5529    3.0165   -8.9017 H   0  0  0  0  0  0  0  0  0  0  0  0
    0.0980    2.7003   -8.3162 H   0  0  0  0  0  0  0  0  0  0  0  0
   -2.3136    1.9875   -4.6070 H   0  0  0  0  0  0  0  0  0  0  0  0
   -3.0501    2.3865   -2.3137 H   0  0  0  0  0  0  0  0  0  0  0  0
   -2.1250    6.5451   -2.7046 H   0  0  0  0  0  0  0  0  0  0  0  0
   -1.9584    6.8272   -5.6807 H   0  0  0  0  0  0  0  0  0  0  0  0
   -2.8949    4.4567    2.1814 H   0  0  0  0  0  0  0  0  0  0  0  0
   -4.9847    5.8819    1.2913 H   0  0  0  0  0  0  0  0  0  0  0  0
   -5.8692    7.4275   -0.0798 H   0  0  0  0  0  0  0  0  0  0  0  0
   -7.4445    8.5455   -1.6009 H   0  0  0  0  0  0  0  0  0  0  0  0
   -6.1683    6.0150   -4.8017 H   0  0  0  0  0  0  0  0  0  0  0  0
   -4.5819    4.8955   -3.2932 H   0  0  0  0  0  0  0  0  0  0  0  0
   -9.2304    9.4188   -4.3486 H   0  0  0  0  0  0  0  0  0  0  0  0
   -9.1808    8.6171   -2.7602 H   0  0  0  0  0  0  0  0  0  0  0  0
   -7.9276    9.8029   -3.1981 H   0  0  0  0  0  0  0  0  0  0  0  0
   -0.5844    3.6828    0.9781 H   0  0  0  0  0  0  0  0  0  0  0  0
   -0.6004    3.5836   -0.7991 H   0  0  0  0  0  0  0  0  0  0  0  0
   -2.1487    1.6506   -0.6772 H   0  0  0  0  0  0  0  0  0  0  0  0
   -2.1327    1.7498    1.1000 H   0  0  0  0  0  0  0  0  0  0  0  0
   -0.3838   -0.2452    0.3042 O   0  5  0  0  0  0  0  0  0  0  0  0
  1  2  1  0  0  0  0
  1 30  1  0  0  0  0
  1 31  1  0  0  0  0
  1 32  1  0  0  0  0
  2  3  1  0  0  0  0
  2 33  1  0  0  0  0
  2 34  1  0  0  0  0
  3  4  1  0  0  0  0
  4  5  2  0  0  0  0
  4  6  1  0  0  0  0
  6 11  2  0  0  0  0
  6  7  1  0  0  0  0
  7  8  2  0  0  0  0
  7 35  1  0  0  0  0
  8  9  1  0  0  0  0
  8 36  1  0  0  0  0
  9 10  2  0  0  0  0
  9 13  1  0  0  0  0
 10 11  1  0  0  0  0
 10 37  1  0  0  0  0
 11 12  1  0  0  0  0
 12 38  1  0  0  0  0
 13 17  1  0  0  0  0
 13 14  1  0  0  0  0
 14 15  2  0  0  0  0
 14 26  1  0  0  0  0
 15 16  1  0  0  0  0
 15 39  1  0  0  0  0
 16 17  2  0  0  0  0
 16 40  1  0  0  0  0
 17 18  1  0  0  0  0
 18 23  2  0  0  0  0
 18 19  1  0  0  0  0
 19 20  2  0  0  0  0
 19 41  1  0  0  0  0
 20 21  1  0  0  0  0
 20 42  1  0  0  0  0
 21 22  2  0  0  0  0
 21 24  1  0  0  0  0
 22 23  1  0  0  0  0
 22 43  1  0  0  0  0
 23 44  1  0  0  0  0
 24 25  1  0  0  0  0
 25 45  1  0  0  0  0
 25 46  1  0  0  0  0
 25 47  1  0  0  0  0
 26 27  1  0  0  0  0
 26 48  1  0  0  0  0
 26 49  1  0  0  0  0
 27 28  1  0  0  0  0
 27 50  1  0  0  0  0
 27 51  1  0  0  0  0
 28 29  2  0  0  0  0
 28 52  1  0  0  0  0
M  CHG  1  52  -1
M  END
$$$$
ZINC03638832
  -OEChem-08230709463D

 54 56  0     1  0  0  0  0  0999 V2000
    0.9420    3.3238    1.5014 C   0  0  0  0  0  0  0  0  0  0  0  0
    2.0599    2.6204    0.7292 C   0  0  0  0  0  0  0  0  0  0  0  0
    3.4065    3.1150    1.2419 C   0  0  0  0  0  0  0  0  0  0  0  0
    4.4950    2.2418    0.6026 C   0  0  0  0  0  0  0  0  0  0  0  0
    4.3554    0.8381    1.1778 C   0  0  0  0  0  0  0  0  0  0  0  0
    2.9316    0.3321    1.0699 C   0  0  0  0  0  0  0  0  0  0  0  0
    1.9149    1.1225    0.9033 C   0  0  0  0  0  0  0  0  0  0  0  0
    0.4858    0.6229    0.8506 C   0  0  0  0  0  0  0  0  0  0  0  0
    0.4265   -0.8708    0.5566 C   0  0  2  0  0  0  0  0  0  0  0  0
   -0.5920   -1.2344    0.6921 H   0  0  0  0  0  0  0  0  0  0  0  0
    1.3669   -1.5745    1.5450 C   0  0  2  0  0  0  0  0  0  0  0  0
    1.1368   -1.2595    2.5628 H   0  0  0  0  0  0  0  0  0  0  0  0
    2.7923   -1.1716    1.1888 C   0  0  0  0  0  0  0  0  0  0  0  0
    1.2108   -3.0685    1.4244 C   0  0  0  0  0  0  0  0  0  0  0  0
    0.4276   -3.5319    0.6295 O   0  0  0  0  0  0  0  0  0  0  0  0
    0.8807   -1.1325   -0.8563 C   0  0  0  0  0  0  0  0  0  0  0  0
    1.7691   -0.4645   -1.3413 O   0  0  0  0  0  0  0  0  0  0  0  0
    0.2994   -2.1090   -1.5810 N   0  0  0  0  0  0  0  0  0  0  0  0
    0.7866   -2.4197   -2.8480 C   0  0  0  0  0  0  0  0  0  0  0  0
    2.0987   -2.1152   -3.1851 C   0  0  0  0  0  0  0  0  0  0  0  0
    2.5808   -2.4279   -4.4399 C   0  0  0  0  0  0  0  0  0  0  0  0
    1.7599   -3.0379   -5.3750 C   0  0  0  0  0  0  0  0  0  0  0  0
    0.4536   -3.3429   -5.0606 C   0  0  0  0  0  0  0  0  0  0  0  0
   -0.0477   -3.0369   -3.7925 C   0  0  0  0  0  0  0  0  0  0  0  0
   -1.4441   -3.3599   -3.4495 C   0  0  0  0  0  0  0  0  0  0  0  0
   -1.9062   -3.0030   -2.3838 O   0  0  0  0  0  0  0  0  0  0  0  0
   -2.2086   -4.0511   -4.3177 O   0  0  0  0  0  0  0  0  0  0  0  0
   -3.5743   -4.3336   -3.9134 C   0  0  0  0  0  0  0  0  0  0  0  0
    1.9337    2.9641   -0.7563 C   0  0  0  0  0  0  0  0  0  0  0  0
    1.0187    4.4007    1.3513 H   0  0  0  0  0  0  0  0  0  0  0  0
   -0.0250    2.9745    1.1396 H   0  0  0  0  0  0  0  0  0  0  0  0
    1.0359    3.0975    2.5635 H   0  0  0  0  0  0  0  0  0  0  0  0
    3.4465    3.0207    2.3270 H   0  0  0  0  0  0  0  0  0  0  0  0
    3.5524    4.1566    0.9557 H   0  0  0  0  0  0  0  0  0  0  0  0
    5.4795    2.6435    0.8422 H   0  0  0  0  0  0  0  0  0  0  0  0
    4.3602    2.2135   -0.4787 H   0  0  0  0  0  0  0  0  0  0  0  0
    4.6497    0.8524    2.2273 H   0  0  0  0  0  0  0  0  0  0  0  0
    5.0154    0.1636    0.6323 H   0  0  0  0  0  0  0  0  0  0  0  0
   -0.0510    1.1612    0.0695 H   0  0  0  0  0  0  0  0  0  0  0  0
    0.0053    0.8165    1.8096 H   0  0  0  0  0  0  0  0  0  0  0  0
    3.4685   -1.5317    1.9642 H   0  0  0  0  0  0  0  0  0  0  0  0
    3.0649   -1.6298    0.2380 H   0  0  0  0  0  0  0  0  0  0  0  0
   -0.4582   -2.5953   -1.2200 H   0  0  0  0  0  0  0  0  0  0  0  0
    2.7437   -1.6361   -2.4634 H   0  0  0  0  0  0  0  0  0  0  0  0
    3.6033   -2.1924   -4.6960 H   0  0  0  0  0  0  0  0  0  0  0  0
    2.1459   -3.2750   -6.3554 H   0  0  0  0  0  0  0  0  0  0  0  0
   -0.1822   -3.8176   -5.7932 H   0  0  0  0  0  0  0  0  0  0  0  0
   -3.5673   -4.9224   -2.9962 H   0  0  0  0  0  0  0  0  0  0  0  0
   -4.1030   -3.3964   -3.7395 H   0  0  0  0  0  0  0  0  0  0  0  0
   -4.0778   -4.8940   -4.7011 H   0  0  0  0  0  0  0  0  0  0  0  0
    2.7377    2.4801   -1.3108 H   0  0  0  0  0  0  0  0  0  0  0  0
    0.9719    2.6128   -1.1301 H   0  0  0  0  0  0  0  0  0  0  0  0
    2.0016    4.0441   -0.8864 H   0  0  0  0  0  0  0  0  0  0  0  0
    1.9418   -3.8845    2.2000 O   0  5  0  0  0  0  0  0  0  0  0  0
  1  2  1  0  0  0  0
  1 30  1  0  0  0  0
  1 31  1  0  0  0  0
  1 32  1  0  0  0  0
  2  7  1  0  0  0  0
  2  3  1  0  0  0  0
  2 29  1  0  0  0  0
  3  4  1  0  0  0  0
  3 33  1  0  0  0  0
  3 34  1  0  0  0  0
  4  5  1  0  0  0  0
  4 35  1  0  0  0  0
  4 36  1  0  0  0  0
  5  6  1  0  0  0  0
  5 37  1  0  0  0  0
  5 38  1  0  0  0  0
  6 13  1  0  0  0  0
  6  7  2  0  0  0  0
  7  8  1  0  0  0  0
  8  9  1  0  0  0  0
  8 39  1  0  0  0  0
  8 40  1  0  0  0  0
  9 10  1  0  0  0  0
  9 11  1  0  0  0  0
  9 16  1  0  0  0  0
 11 12  1  0  0  0  0
 11 13  1  0  0  0  0
 11 14  1  0  0  0  0
 13 41  1  0  0  0  0
 13 42  1  0  0  0  0
 14 15  2  0  0  0  0
 14 54  1  0  0  0  0
 16 17  2  0  0  0  0
 16 18  1  0  0  0  0
 18 19  1  0  0  0  0
 18 43  1  0  0  0  0
 19 24  2  0  0  0  0
 19 20  1  0  0  0  0
 20 21  2  0  0  0  0
 20 44  1  0  0  0  0
 21 22  1  0  0  0  0
 21 45  1  0  0  0  0
 22 23  2  0  0  0  0
 22 46  1  0  0  0  0
 23 24  1  0  0  0  0
 23 47  1  0  0  0  0
 24 25  1  0  0  0  0
 25 26  2  0  0  0  0
 25 27  1  0  0  0  0
 27 28  1  0  0  0  0
 28 48  1  0  0  0  0
 28 49  1  0  0  0  0
 28 50  1  0  0  0  0
 29 51  1  0  0  0  0
 29 52  1  0  0  0  0
 29 53  1  0  0  0  0
M  CHG  1  54  -1
M  END
$$$$
ZINC03638833
  -OEChem-08230709463D

 54 56  0     1  0  0  0  0  0999 V2000
    2.0361   -6.8091    3.2890 C   0  0  0  0  0  0  0  0  0  0  0  0
    1.7945   -7.0143    1.7921 C   0  0  0  0  0  0  0  0  0  0  0  0
    1.9988   -8.4851    1.4522 C   0  0  0  0  0  0  0  0  0  0  0  0
    3.4981   -8.7869    1.5863 C   0  0  0  0  0  0  0  0  0  0  0  0
    4.2181   -8.0353    0.4739 C   0  0  0  0  0  0  0  0  0  0  0  0
    3.8188   -6.5742    0.4417 C   0  0  0  0  0  0  0  0  0  0  0  0
    2.7415   -6.1258    1.0118 C   0  0  0  0  0  0  0  0  0  0  0  0
    2.3334   -4.6675    0.9665 C   0  0  0  0  0  0  0  0  0  0  0  0
    3.0659   -3.9156   -0.1376 C   0  0  2  0  0  0  0  0  0  0  0  0
    2.7177   -4.2575   -1.1122 H   0  0  0  0  0  0  0  0  0  0  0  0
    4.5641   -4.2135    0.0164 C   0  0  1  0  0  0  0  0  0  0  0  0
    4.8759   -4.0229    1.0432 H   0  0  0  0  0  0  0  0  0  0  0  0
    4.7754   -5.6834   -0.3242 C   0  0  0  0  0  0  0  0  0  0  0  0
    5.3577   -3.3496   -0.9296 C   0  0  0  0  0  0  0  0  0  0  0  0
    4.7891   -2.5707   -1.6577 O   0  0  0  0  0  0  0  0  0  0  0  0
    2.8215   -2.4352    0.0025 C   0  0  0  0  0  0  0  0  0  0  0  0
    3.7552   -1.6797    0.1707 O   0  0  0  0  0  0  0  0  0  0  0  0
    1.5653   -1.9507   -0.0593 N   0  0  0  0  0  0  0  0  0  0  0  0
    1.3479   -0.5753   -0.0439 C   0  0  0  0  0  0  0  0  0  0  0  0
    2.0596    0.2338    0.8318 C   0  0  0  0  0  0  0  0  0  0  0  0
    1.8426    1.5968    0.8454 C   0  0  0  0  0  0  0  0  0  0  0  0
    0.9163    2.1684   -0.0123 C   0  0  0  0  0  0  0  0  0  0  0  0
    0.2007    1.3817   -0.8881 C   0  0  0  0  0  0  0  0  0  0  0  0
    0.4089    0.0000   -0.9135 C   0  0  0  0  0  0  0  0  0  0  0  0
   -0.3528   -0.8476   -1.8482 C   0  0  0  0  0  0  0  0  0  0  0  0
   -0.1475   -2.0445   -1.8881 O   0  0  0  0  0  0  0  0  0  0  0  0
   -1.2770   -0.2951   -2.6585 O   0  0  0  0  0  0  0  0  0  0  0  0
   -1.9889   -1.1902   -3.5531 C   0  0  0  0  0  0  0  0  0  0  0  0
    0.3534   -6.6205    1.4617 C   0  0  0  0  0  0  0  0  0  0  0  0
    1.8561   -5.7654    3.5464 H   0  0  0  0  0  0  0  0  0  0  0  0
    1.3577   -7.4457    3.8571 H   0  0  0  0  0  0  0  0  0  0  0  0
    3.0666   -7.0703    3.5298 H   0  0  0  0  0  0  0  0  0  0  0  0
    1.6727   -8.6773    0.4301 H   0  0  0  0  0  0  0  0  0  0  0  0
    1.4326   -9.1080    2.1445 H   0  0  0  0  0  0  0  0  0  0  0  0
    3.6708   -9.8580    1.4813 H   0  0  0  0  0  0  0  0  0  0  0  0
    3.8588   -8.4463    2.5568 H   0  0  0  0  0  0  0  0  0  0  0  0
    3.9703   -8.4933   -0.4837 H   0  0  0  0  0  0  0  0  0  0  0  0
    5.2939   -8.1070    0.6339 H   0  0  0  0  0  0  0  0  0  0  0  0
    2.5628   -4.2037    1.9258 H   0  0  0  0  0  0  0  0  0  0  0  0
    1.2599   -4.6036    0.7891 H   0  0  0  0  0  0  0  0  0  0  0  0
    5.7991   -5.9631   -0.0754 H   0  0  0  0  0  0  0  0  0  0  0  0
    4.6170   -5.8267   -1.3931 H   0  0  0  0  0  0  0  0  0  0  0  0
    0.8127   -2.5601   -0.1145 H   0  0  0  0  0  0  0  0  0  0  0  0
    2.7835   -0.2039    1.5032 H   0  0  0  0  0  0  0  0  0  0  0  0
    2.3987    2.2218    1.5284 H   0  0  0  0  0  0  0  0  0  0  0  0
    0.7546    3.2361    0.0059 H   0  0  0  0  0  0  0  0  0  0  0  0
   -0.5170    1.8327   -1.5574 H   0  0  0  0  0  0  0  0  0  0  0  0
   -2.5224   -1.9396   -2.9684 H   0  0  0  0  0  0  0  0  0  0  0  0
   -2.7013   -0.6185   -4.1479 H   0  0  0  0  0  0  0  0  0  0  0  0
   -1.2773   -1.6844   -4.2145 H   0  0  0  0  0  0  0  0  0  0  0  0
    0.1782   -6.7464    0.3933 H   0  0  0  0  0  0  0  0  0  0  0  0
   -0.3340   -7.2560    2.0201 H   0  0  0  0  0  0  0  0  0  0  0  0
    0.1894   -5.5785    1.7365 H   0  0  0  0  0  0  0  0  0  0  0  0
    6.6961   -3.4454   -0.9635 O   0  5  0  0  0  0  0  0  0  0  0  0
  1  2  1  0  0  0  0
  1 30  1  0  0  0  0
  1 31  1  0  0  0  0
  1 32  1  0  0  0  0
  2  7  1  0  0  0  0
  2  3  1  0  0  0  0
  2 29  1  0  0  0  0
  3  4  1  0  0  0  0
  3 33  1  0  0  0  0
  3 34  1  0  0  0  0
  4  5  1  0  0  0  0
  4 35  1  0  0  0  0
  4 36  1  0  0  0  0
  5  6  1  0  0  0  0
  5 37  1  0  0  0  0
  5 38  1  0  0  0  0
  6 13  1  0  0  0  0
  6  7  2  0  0  0  0
  7  8  1  0  0  0  0
  8  9  1  0  0  0  0
  8 39  1  0  0  0  0
  8 40  1  0  0  0  0
  9 10  1  0  0  0  0
  9 11  1  0  0  0  0
  9 16  1  0  0  0  0
 11 12  1  0  0  0  0
 11 13  1  0  0  0  0
 11 14  1  0  0  0  0
 13 41  1  0  0  0  0
 13 42  1  0  0  0  0
 14 15  2  0  0  0  0
 14 54  1  0  0  0  0
 16 17  2  0  0  0  0
 16 18  1  0  0  0  0
 18 19  1  0  0  0  0
 18 43  1  0  0  0  0
 19 24  2  0  0  0  0
 19 20  1  0  0  0  0
 20 21  2  0  0  0  0
 20 44  1  0  0  0  0
 21 22  1  0  0  0  0
 21 45  1  0  0  0  0
 22 23  2  0  0  0  0
 22 46  1  0  0  0  0
 23 24  1  0  0  0  0
 23 47  1  0  0  0  0
 24 25  1  0  0  0  0
 25 26  2  0  0  0  0
 25 27  1  0  0  0  0
 27 28  1  0  0  0  0
 28 48  1  0  0  0  0
 28 49  1  0  0  0  0
 28 50  1  0  0  0  0
 29 51  1  0  0  0  0
 29 52  1  0  0  0  0
 29 53  1  0  0  0  0
M  CHG  1  54  -1
M  END
$$$$
ZINC03638834
  -OEChem-08230709463D

 54 56  0     1  0  0  0  0  0999 V2000
   -1.0756   -0.5468    2.5291 C   0  0  0  0  0  0  0  0  0  0  0  0
   -0.2864    0.7640    2.5257 C   0  0  0  0  0  0  0  0  0  0  0  0
   -0.6021    1.5382    3.7991 C   0  0  0  0  0  0  0  0  0  0  0  0
   -2.0545    2.0242    3.6982 C   0  0  0  0  0  0  0  0  0  0  0  0
   -2.1121    3.0660    2.5908 C   0  0  0  0  0  0  0  0  0  0  0  0
   -1.4809    2.5543    1.3123 C   0  0  0  0  0  0  0  0  0  0  0  0
   -0.6503    1.5576    1.2878 C   0  0  0  0  0  0  0  0  0  0  0  0
    0.0255    1.0805    0.0188 C   0  0  0  0  0  0  0  0  0  0  0  0
   -0.7085    1.5722   -1.2224 C   0  0  1  0  0  0  0  0  0  0  0  0
   -1.6776    1.0792   -1.2989 H   0  0  0  0  0  0  0  0  0  0  0  0
   -0.9049    3.0874   -1.0737 C   0  0  2  0  0  0  0  0  0  0  0  0
    0.0476    3.5628   -0.8395 H   0  0  0  0  0  0  0  0  0  0  0  0
   -1.8897    3.3131    0.0666 C   0  0  0  0  0  0  0  0  0  0  0  0
   -1.4610    3.6591   -2.3524 C   0  0  0  0  0  0  0  0  0  0  0  0
   -1.6809    2.9335   -3.2932 O   0  0  0  0  0  0  0  0  0  0  0  0
    0.1133    1.2811   -2.4516 C   0  0  0  0  0  0  0  0  0  0  0  0
    0.4784    2.1903   -3.1663 O   0  0  0  0  0  0  0  0  0  0  0  0
    0.4424    0.0103   -2.7568 N   0  0  0  0  0  0  0  0  0  0  0  0
    1.1205   -0.2683   -3.9407 C   0  0  0  0  0  0  0  0  0  0  0  0
    2.0641    0.6246   -4.4311 C   0  0  0  0  0  0  0  0  0  0  0  0
    2.7353    0.3464   -5.6046 C   0  0  0  0  0  0  0  0  0  0  0  0
    2.4743   -0.8223   -6.3020 C   0  0  0  0  0  0  0  0  0  0  0  0
    1.5412   -1.7200   -5.8313 C   0  0  0  0  0  0  0  0  0  0  0  0
    0.8579   -1.4554   -4.6413 C   0  0  0  0  0  0  0  0  0  0  0  0
   -0.1369   -2.4144   -4.1285 C   0  0  0  0  0  0  0  0  0  0  0  0
   -0.8011   -2.1358   -3.1498 O   0  0  0  0  0  0  0  0  0  0  0  0
   -0.3098   -3.6002   -4.7449 O   0  0  0  0  0  0  0  0  0  0  0  0
   -1.3068   -4.4950   -4.1849 C   0  0  0  0  0  0  0  0  0  0  0  0
    1.2099    0.4461    2.4937 C   0  0  0  0  0  0  0  0  0  0  0  0
   -0.8271   -1.1228    1.6377 H   0  0  0  0  0  0  0  0  0  0  0  0
   -0.8185   -1.1234    3.4176 H   0  0  0  0  0  0  0  0  0  0  0  0
   -2.1434   -0.3279    2.5343 H   0  0  0  0  0  0  0  0  0  0  0  0
   -0.4894    0.8868    4.6657 H   0  0  0  0  0  0  0  0  0  0  0  0
    0.0685    2.3929    3.8882 H   0  0  0  0  0  0  0  0  0  0  0  0
   -2.7087    1.1868    3.4555 H   0  0  0  0  0  0  0  0  0  0  0  0
   -2.3612    2.4723    4.6433 H   0  0  0  0  0  0  0  0  0  0  0  0
   -1.5839    3.9629    2.9145 H   0  0  0  0  0  0  0  0  0  0  0  0
   -3.1546    3.3186    2.3971 H   0  0  0  0  0  0  0  0  0  0  0  0
    0.0439   -0.0093    0.0132 H   0  0  0  0  0  0  0  0  0  0  0  0
    1.0493    1.4539   -0.0016 H   0  0  0  0  0  0  0  0  0  0  0  0
   -1.9312    4.3779    0.2958 H   0  0  0  0  0  0  0  0  0  0  0  0
   -2.8787    2.9773   -0.2453 H   0  0  0  0  0  0  0  0  0  0  0  0
    0.2070   -0.7104   -2.1516 H   0  0  0  0  0  0  0  0  0  0  0  0
    2.2733    1.5376   -3.8935 H   0  0  0  0  0  0  0  0  0  0  0  0
    3.4688    1.0438   -5.9814 H   0  0  0  0  0  0  0  0  0  0  0  0
    3.0048   -1.0303   -7.2195 H   0  0  0  0  0  0  0  0  0  0  0  0
    1.3413   -2.6292   -6.3788 H   0  0  0  0  0  0  0  0  0  0  0  0
   -2.2826   -4.0097   -4.2046 H   0  0  0  0  0  0  0  0  0  0  0  0
   -1.3447   -5.4111   -4.7743 H   0  0  0  0  0  0  0  0  0  0  0  0
   -1.0415   -4.7360   -3.1555 H   0  0  0  0  0  0  0  0  0  0  0  0
    1.7785    1.3758    2.4735 H   0  0  0  0  0  0  0  0  0  0  0  0
    1.4791   -0.1253    3.3821 H   0  0  0  0  0  0  0  0  0  0  0  0
    1.4381   -0.1387    1.6026 H   0  0  0  0  0  0  0  0  0  0  0  0
   -1.7120    4.9744   -2.4462 O   0  5  0  0  0  0  0  0  0  0  0  0
  1  2  1  0  0  0  0
  1 30  1  0  0  0  0
  1 31  1  0  0  0  0
  1 32  1  0  0  0  0
  2  7  1  0  0  0  0
  2  3  1  0  0  0  0
  2 29  1  0  0  0  0
  3  4  1  0  0  0  0
  3 33  1  0  0  0  0
  3 34  1  0  0  0  0
  4  5  1  0  0  0  0
  4 35  1  0  0  0  0
  4 36  1  0  0  0  0
  5  6  1  0  0  0  0
  5 37  1  0  0  0  0
  5 38  1  0  0  0  0
  6 13  1  0  0  0  0
  6  7  2  0  0  0  0
  7  8  1  0  0  0  0
  8  9  1  0  0  0  0
  8 39  1  0  0  0  0
  8 40  1  0  0  0  0
  9 10  1  0  0  0  0
  9 11  1  0  0  0  0
  9 16  1  0  0  0  0
 11 12  1  0  0  0  0
 11 13  1  0  0  0  0
 11 14  1  0  0  0  0
 13 41  1  0  0  0  0
 13 42  1  0  0  0  0
 14 15  2  0  0  0  0
 14 54  1  0  0  0  0
 16 17  2  0  0  0  0
 16 18  1  0  0  0  0
 18 19  1  0  0  0  0
 18 43  1  0  0  0  0
 19 24  2  0  0  0  0
 19 20  1  0  0  0  0
 20 21  2  0  0  0  0
 20 44  1  0  0  0  0
 21 22  1  0  0  0  0
 21 45  1  0  0  0  0
 22 23  2  0  0  0  0
 22 46  1  0  0  0  0
 23 24  1  0  0  0  0
 23 47  1  0  0  0  0
 24 25  1  0  0  0  0
 25 26  2  0  0  0  0
 25 27  1  0  0  0  0
 27 28  1  0  0  0  0
 28 48  1  0  0  0  0
 28 49  1  0  0  0  0
 28 50  1  0  0  0  0
 29 51  1  0  0  0  0
 29 52  1  0  0  0  0
 29 53  1  0  0  0  0
M  CHG  1  54  -1
M  END
$$$$
ZINC03638836
  -OEChem-08230709463D

 54 56  0     1  0  0  0  0  0999 V2000
    3.5970   -3.8230   -4.2970 C   0  0  0  0  0  0  0  0  0  0  0  0
    3.6953   -2.3587   -3.8645 C   0  0  0  0  0  0  0  0  0  0  0  0
    4.4466   -1.5739   -4.9323 C   0  0  0  0  0  0  0  0  0  0  0  0
    5.9132   -2.0262   -4.8927 C   0  0  0  0  0  0  0  0  0  0  0  0
    6.5066   -1.5419   -3.5758 C   0  0  0  0  0  0  0  0  0  0  0  0
    5.6408   -1.9378   -2.3973 C   0  0  0  0  0  0  0  0  0  0  0  0
    4.3958   -2.2848   -2.5233 C   0  0  0  0  0  0  0  0  0  0  0  0
    3.5250   -2.6656   -1.3434 C   0  0  0  0  0  0  0  0  0  0  0  0
    4.1284   -2.1925   -0.0270 C   0  0  1  0  0  0  0  0  0  0  0  0
    3.5793   -2.6260    0.8089 H   0  0  0  0  0  0  0  0  0  0  0  0
    5.5893   -2.6633    0.0069 C   0  0  1  0  0  0  0  0  0  0  0  0
    5.6398   -3.7300   -0.2117 H   0  0  0  0  0  0  0  0  0  0  0  0
    6.3469   -1.8804   -1.0581 C   0  0  0  0  0  0  0  0  0  0  0  0
    6.1843   -2.3890    1.3640 C   0  0  0  0  0  0  0  0  0  0  0  0
    5.5133   -1.8691    2.2239 O   0  0  0  0  0  0  0  0  0  0  0  0
    4.0735   -0.6885    0.0499 C   0  0  0  0  0  0  0  0  0  0  0  0
    4.3837   -0.0203   -0.9135 O   0  0  0  0  0  0  0  0  0  0  0  0
    3.6798   -0.0859    1.1893 N   0  0  0  0  0  0  0  0  0  0  0  0
    3.5294    1.2980    1.2291 C   0  0  0  0  0  0  0  0  0  0  0  0
    3.2223    2.0001    0.0712 C   0  0  0  0  0  0  0  0  0  0  0  0
    3.0737    3.3716    0.1128 C   0  0  0  0  0  0  0  0  0  0  0  0
    3.2292    4.0583    1.3065 C   0  0  0  0  0  0  0  0  0  0  0  0
    3.5293    3.3782    2.4665 C   0  0  0  0  0  0  0  0  0  0  0  0
    3.6881    1.9900    2.4394 C   0  0  0  0  0  0  0  0  0  0  0  0
    4.0142    1.2568    3.6756 C   0  0  0  0  0  0  0  0  0  0  0  0
    4.0897    0.0441    3.6607 O   0  0  0  0  0  0  0  0  0  0  0  0
    4.2233    1.9308    4.8236 O   0  0  0  0  0  0  0  0  0  0  0  0
    4.5342    1.1433    6.0032 C   0  0  0  0  0  0  0  0  0  0  0  0
    2.2838   -1.7854   -3.7234 C   0  0  0  0  0  0  0  0  0  0  0  0
    3.0288   -4.3837   -3.5549 H   0  0  0  0  0  0  0  0  0  0  0  0
    3.0938   -3.8839   -5.2620 H   0  0  0  0  0  0  0  0  0  0  0  0
    4.5986   -4.2446   -4.3824 H   0  0  0  0  0  0  0  0  0  0  0  0
    4.3827   -0.5066   -4.7207 H   0  0  0  0  0  0  0  0  0  0  0  0
    4.0211   -1.7835   -5.9137 H   0  0  0  0  0  0  0  0  0  0  0  0
    6.4586   -1.5872   -5.7281 H   0  0  0  0  0  0  0  0  0  0  0  0
    5.9667   -3.1136   -4.9452 H   0  0  0  0  0  0  0  0  0  0  0  0
    6.5957   -0.4559   -3.6034 H   0  0  0  0  0  0  0  0  0  0  0  0
    7.4984   -1.9763   -3.4510 H   0  0  0  0  0  0  0  0  0  0  0  0
    3.4167   -3.7498   -1.3161 H   0  0  0  0  0  0  0  0  0  0  0  0
    2.5414   -2.2127   -1.4673 H   0  0  0  0  0  0  0  0  0  0  0  0
    7.3472   -2.3001   -1.1646 H   0  0  0  0  0  0  0  0  0  0  0  0
    6.4301   -0.8400   -0.7437 H   0  0  0  0  0  0  0  0  0  0  0  0
    3.5011   -0.6161    1.9816 H   0  0  0  0  0  0  0  0  0  0  0  0
    3.0991    1.4723   -0.8630 H   0  0  0  0  0  0  0  0  0  0  0  0
    2.8344    3.9131   -0.7904 H   0  0  0  0  0  0  0  0  0  0  0  0
    3.1102    5.1315    1.3283 H   0  0  0  0  0  0  0  0  0  0  0  0
    3.6454    3.9177    3.3949 H   0  0  0  0  0  0  0  0  0  0  0  0
    3.7111    0.4594    6.2108 H   0  0  0  0  0  0  0  0  0  0  0  0
    5.4460    0.5721    5.8287 H   0  0  0  0  0  0  0  0  0  0  0  0
    4.6788    1.8071    6.8555 H   0  0  0  0  0  0  0  0  0  0  0  0
    2.3443   -0.7469   -3.3977 H   0  0  0  0  0  0  0  0  0  0  0  0
    1.7735   -1.8353   -4.6852 H   0  0  0  0  0  0  0  0  0  0  0  0
    1.7280   -2.3654   -2.9866 H   0  0  0  0  0  0  0  0  0  0  0  0
    7.4596   -2.7223    1.6176 O   0  5  0  0  0  0  0  0  0  0  0  0
  1  2  1  0  0  0  0
  1 30  1  0  0  0  0
  1 31  1  0  0  0  0
  1 32  1  0  0  0  0
  2  7  1  0  0  0  0
  2  3  1  0  0  0  0
  2 29  1  0  0  0  0
  3  4  1  0  0  0  0
  3 33  1  0  0  0  0
  3 34  1  0  0  0  0
  4  5  1  0  0  0  0
  4 35  1  0  0  0  0
  4 36  1  0  0  0  0
  5  6  1  0  0  0  0
  5 37  1  0  0  0  0
  5 38  1  0  0  0  0
  6 13  1  0  0  0  0
  6  7  2  0  0  0  0
  7  8  1  0  0  0  0
  8  9  1  0  0  0  0
  8 39  1  0  0  0  0
  8 40  1  0  0  0  0
  9 10  1  0  0  0  0
  9 11  1  0  0  0  0
  9 16  1  0  0  0  0
 11 12  1  0  0  0  0
 11 13  1  0  0  0  0
 11 14  1  0  0  0  0
 13 41  1  0  0  0  0
 13 42  1  0  0  0  0
 14 15  2  0  0  0  0
 14 54  1  0  0  0  0
 16 17  2  0  0  0  0
 16 18  1  0  0  0  0
 18 19  1  0  0  0  0
 18 43  1  0  0  0  0
 19 24  2  0  0  0  0
 19 20  1  0  0  0  0
 20 21  2  0  0  0  0
 20 44  1  0  0  0  0
 21 22  1  0  0  0  0
 21 45  1  0  0  0  0
 22 23  2  0  0  0  0
 22 46  1  0  0  0  0
 23 24  1  0  0  0  0
 23 47  1  0  0  0  0
 24 25  1  0  0  0  0
 25 26  2  0  0  0  0
 25 27  1  0  0  0  0
 27 28  1  0  0  0  0
 28 48  1  0  0  0  0
 28 49  1  0  0  0  0
 28 50  1  0  0  0  0
 29 51  1  0  0  0  0
 29 52  1  0  0  0  0
 29 53  1  0  0  0  0
M  CHG  1  54  -1
M  END
$$$$
ZINC03646749
  -OEChem-08230709463D

 62 64  0     1  0  0  0  0  0999 V2000
   -6.7748    5.2688   -1.3815 C   0  0  0  0  0  0  0  0  0  0  0  0
   -7.0848    3.9370   -0.6780 C   0  0  1  0  0  0  0  0  0  0  0  0
   -8.2547    3.2703   -1.4013 C   0  0  0  0  0  0  0  0  0  0  0  0
   -7.8314    2.9066   -2.8265 C   0  0  0  0  0  0  0  0  0  0  0  0
   -6.7119    1.8764   -2.7462 C   0  0  0  0  0  0  0  0  0  0  0  0
   -5.4996    2.4080   -1.9809 C   0  0  2  0  0  0  0  0  0  0  0  0
   -5.8625    3.0298   -0.6455 C   0  0  1  0  0  0  0  0  0  0  0  0
   -6.1073    2.1758    0.0298 H   0  0  0  0  0  0  0  0  0  0  0  0
   -4.6835    3.7519    0.0055 C   0  0  1  0  0  0  0  0  0  0  0  0
   -4.4444    4.6746   -0.5210 H   0  0  0  0  0  0  0  0  0  0  0  0
   -5.0323    4.0981    1.4621 C   0  0  0  0  0  0  0  0  0  0  0  0
   -6.3355    4.8581    1.4943 C   0  0  0  0  0  0  0  0  0  0  0  0
   -6.4391    5.9872    2.1547 C   0  0  0  0  0  0  0  0  0  0  0  0
   -7.5234    4.2859    0.7542 C   0  0  2  0  0  0  0  0  0  0  0  0
   -8.3072    5.0497    0.7023 H   0  0  0  0  0  0  0  0  0  0  0  0
   -8.0593    3.0683    1.4984 C   0  0  0  0  0  0  0  0  0  0  0  0
   -8.5927    3.5003    2.8658 C   0  0  0  0  0  0  0  0  0  0  0  0
   -9.1225    2.2965    3.6015 C   0  0  0  0  0  0  0  0  0  0  0  0
   -8.3416    1.6463    4.4667 C   0  0  0  0  0  0  0  0  0  0  0  0
  -10.4924    1.8408    3.3674 C   0  0  0  0  0  0  0  0  0  0  0  0
  -11.2023    2.4319    2.5808 O   0  0  0  0  0  0  0  0  0  0  0  0
   -3.4904    2.9225    0.0348 O   0  0  0  0  0  0  0  0  0  0  0  0
   -2.3032    3.5591    0.0437 C   0  0  0  0  0  0  0  0  0  0  0  0
   -2.2648    4.7730    0.0274 O   0  0  0  0  0  0  0  0  0  0  0  0
   -1.0480    2.7807    0.0733 C   0  0  0  0  0  0  0  0  0  0  0  0
   -1.0884    1.3850    0.0858 C   0  0  0  0  0  0  0  0  0  0  0  0
    0.0874    0.6644    0.1181 C   0  0  0  0  0  0  0  0  0  0  0  0
    1.3051    1.3215    0.1272 C   0  0  0  0  0  0  0  0  0  0  0  0
    1.3525    2.7042    0.1096 C   0  0  0  0  0  0  0  0  0  0  0  0
    0.1842    3.4372    0.0825 C   0  0  0  0  0  0  0  0  0  0  0  0
   -4.7021    3.3562   -2.8743 C   0  0  0  0  0  0  0  0  0  0  0  0
   -4.6284    1.1791   -1.7309 C   0  0  0  0  0  0  0  0  0  0  0  0
   -4.3449    0.8593   -0.6008 O   0  0  0  0  0  0  0  0  0  0  0  0
   -6.5739    5.0840   -2.4368 H   0  0  0  0  0  0  0  0  0  0  0  0
   -7.6300    5.9378   -1.2862 H   0  0  0  0  0  0  0  0  0  0  0  0
   -5.9007    5.7285   -0.9203 H   0  0  0  0  0  0  0  0  0  0  0  0
   -9.1007    3.9561   -1.4407 H   0  0  0  0  0  0  0  0  0  0  0  0
   -8.5512    2.3533   -0.8936 H   0  0  0  0  0  0  0  0  0  0  0  0
   -7.5187    3.7818   -3.3811 H   0  0  0  0  0  0  0  0  0  0  0  0
   -8.6919    2.4598   -3.3407 H   0  0  0  0  0  0  0  0  0  0  0  0
   -6.3990    1.6003   -3.7581 H   0  0  0  0  0  0  0  0  0  0  0  0
   -7.0814    0.9763   -2.2449 H   0  0  0  0  0  0  0  0  0  0  0  0
   -5.1185    3.1787    2.0408 H   0  0  0  0  0  0  0  0  0  0  0  0
   -4.2354    4.7153    1.8819 H   0  0  0  0  0  0  0  0  0  0  0  0
   -7.3798    6.5176    2.1734 H   0  0  0  0  0  0  0  0  0  0  0  0
   -5.5838    6.3862    2.6797 H   0  0  0  0  0  0  0  0  0  0  0  0
   -8.8649    2.6149    0.9208 H   0  0  0  0  0  0  0  0  0  0  0  0
   -7.2568    2.3432    1.6340 H   0  0  0  0  0  0  0  0  0  0  0  0
   -7.7871    3.9536    3.4433 H   0  0  0  0  0  0  0  0  0  0  0  0
   -9.3951    4.2254    2.7302 H   0  0  0  0  0  0  0  0  0  0  0  0
   -8.7213    0.7836    4.9940 H   0  0  0  0  0  0  0  0  0  0  0  0
   -7.3300    1.9828    4.6396 H   0  0  0  0  0  0  0  0  0  0  0  0
  -10.8721    0.9781    3.8946 H   0  0  0  0  0  0  0  0  0  0  0  0
   -2.0381    0.8709    0.0743 H   0  0  0  0  0  0  0  0  0  0  0  0
    0.0576   -0.4151    0.1320 H   0  0  0  0  0  0  0  0  0  0  0  0
    2.2228    0.7524    0.1484 H   0  0  0  0  0  0  0  0  0  0  0  0
    2.3063    3.2108    0.1168 H   0  0  0  0  0  0  0  0  0  0  0  0
    0.2226    4.5164    0.0681 H   0  0  0  0  0  0  0  0  0  0  0  0
   -3.8331    3.7244   -2.3291 H   0  0  0  0  0  0  0  0  0  0  0  0
   -4.3725    2.8237   -3.7664 H   0  0  0  0  0  0  0  0  0  0  0  0
   -5.3317    4.1972   -3.1650 H   0  0  0  0  0  0  0  0  0  0  0  0
   -4.1776    0.4541   -2.7667 O   0  5  0  0  0  0  0  0  0  0  0  0
  1  2  1  0  0  0  0
  1 34  1  0  0  0  0
  1 35  1  0  0  0  0
  1 36  1  0  0  0  0
  2  7  1  0  0  0  0
  2 14  1  0  0  0  0
  2  3  1  0  0  0  0
  3  4  1  0  0  0  0
  3 37  1  0  0  0  0
  3 38  1  0  0  0  0
  4  5  1  0  0  0  0
  4 39  1  0  0  0  0
  4 40  1  0  0  0  0
  5  6  1  0  0  0  0
  5 41  1  0  0  0  0
  5 42  1  0  0  0  0
  6  7  1  0  0  0  0
  6 31  1  0  0  0  0
  6 32  1  0  0  0  0
  7  8  1  0  0  0  0
  7  9  1  0  0  0  0
  9 10  1  0  0  0  0
  9 11  1  0  0  0  0
  9 22  1  0  0  0  0
 11 12  1  0  0  0  0
 11 43  1  0  0  0  0
 11 44  1  0  0  0  0
 12 13  2  0  0  0  0
 12 14  1  0  0  0  0
 13 45  1  0  0  0  0
 13 46  1  0  0  0  0
 14 15  1  0  0  0  0
 14 16  1  0  0  0  0
 16 17  1  0  0  0  0
 16 47  1  0  0  0  0
 16 48  1  0  0  0  0
 17 18  1  0  0  0  0
 17 49  1  0  0  0  0
 17 50  1  0  0  0  0
 18 19  2  0  0  0  0
 18 20  1  0  0  0  0
 19 51  1  0  0  0  0
 19 52  1  0  0  0  0
 20 21  2  0  0  0  0
 20 53  1  0  0  0  0
 22 23  1  0  0  0  0
 23 24  2  0  0  0  0
 23 25  1  0  0  0  0
 25 30  2  0  0  0  0
 25 26  1  0  0  0  0
 26 27  2  0  0  0  0
 26 54  1  0  0  0  0
 27 28  1  0  0  0  0
 27 55  1  0  0  0  0
 28 29  2  0  0  0  0
 28 56  1  0  0  0  0
 29 30  1  0  0  0  0
 29 57  1  0  0  0  0
 30 58  1  0  0  0  0
 31 59  1  0  0  0  0
 31 60  1  0  0  0  0
 31 61  1  0  0  0  0
 32 33  2  0  0  0  0
 32 62  1  0  0  0  0
M  CHG  1  62  -1
M  END
$$$$
ZINC03648490
  -OEChem-08230709463D

 53 55  0     0  0  0  0  0  0999 V2000
    2.7629    3.5031   -5.2813 C   0  0  0  0  0  0  0  0  0  0  0  0
    2.2620    2.6611   -4.1061 C   0  0  0  0  0  0  0  0  0  0  0  0
    1.3661    3.5184   -3.2098 C   0  0  0  0  0  0  0  0  0  0  0  0
    0.8652    2.6764   -2.0346 C   0  0  0  0  0  0  0  0  0  0  0  0
    2.0601    2.1685   -1.2252 C   0  0  0  0  0  0  0  0  0  0  0  0
    2.9559    1.3112   -2.1215 C   0  0  0  0  0  0  0  0  0  0  0  0
    3.4569    2.1532   -3.2967 C   0  0  0  0  0  0  0  0  0  0  0  0
    1.5666    1.3392   -0.0677 C   0  0  0  0  0  0  0  0  0  0  0  0
    0.4838    0.7964   -0.1287 O   0  0  0  0  0  0  0  0  0  0  0  0
    2.3287    1.2007    1.0353 N   0  0  0  0  0  0  0  0  0  0  0  0
    3.5253    1.9094    1.1501 C   0  0  0  0  0  0  0  0  0  0  0  0
    3.5453    3.1754    1.6814 C   0  0  0  0  0  0  0  0  0  0  0  0
    4.7556    3.8375    1.7795 C   0  0  0  0  0  0  0  0  0  0  0  0
    5.8981    2.6503    1.0932 S   0  0  0  0  0  0  0  0  0  0  0  0
    4.7310    1.3516    0.7225 C   0  0  0  0  0  0  0  0  0  0  0  0
    4.9674    0.0830    0.1443 C   0  0  0  0  0  0  0  0  0  0  0  0
    4.0409   -0.6853   -0.0374 O   0  0  0  0  0  0  0  0  0  0  0  0
    5.0320    5.1882    2.3120 C   0  0  0  0  0  0  0  0  0  0  0  0
    3.9891    5.9744    2.8047 C   0  0  0  0  0  0  0  0  0  0  0  0
    4.2548    7.2319    3.3061 C   0  0  0  0  0  0  0  0  0  0  0  0
    5.5499    7.7190    3.3099 C   0  0  0  0  0  0  0  0  0  0  0  0
    6.5873    6.9471    2.8177 C   0  0  0  0  0  0  0  0  0  0  0  0
    6.3362    5.6856    2.3192 C   0  0  0  0  0  0  0  0  0  0  0  0
    1.9008    0.3061    2.1136 C   0  0  0  0  0  0  0  0  0  0  0  0
    0.6060    0.8364    2.7327 C   0  0  0  0  0  0  0  0  0  0  0  0
    1.6594   -1.0950    1.5484 C   0  0  0  0  0  0  0  0  0  0  0  0
    3.3328    4.3518   -4.9033 H   0  0  0  0  0  0  0  0  0  0  0  0
    3.4012    2.8923   -5.9199 H   0  0  0  0  0  0  0  0  0  0  0  0
    1.9117    3.8649   -5.8580 H   0  0  0  0  0  0  0  0  0  0  0  0
    1.6921    1.8123   -4.4842 H   0  0  0  0  0  0  0  0  0  0  0  0
    0.5149    3.8802   -3.7865 H   0  0  0  0  0  0  0  0  0  0  0  0
    1.9360    4.3671   -2.8318 H   0  0  0  0  0  0  0  0  0  0  0  0
    0.2953    1.8276   -2.4127 H   0  0  0  0  0  0  0  0  0  0  0  0
    0.2269    3.2871   -1.3961 H   0  0  0  0  0  0  0  0  0  0  0  0
    2.6300    3.0173   -0.8472 H   0  0  0  0  0  0  0  0  0  0  0  0
    3.8072    0.9494   -1.5448 H   0  0  0  0  0  0  0  0  0  0  0  0
    2.3860    0.4625   -2.4995 H   0  0  0  0  0  0  0  0  0  0  0  0
    4.0951    1.5425   -3.9352 H   0  0  0  0  0  0  0  0  0  0  0  0
    4.0268    3.0020   -2.9187 H   0  0  0  0  0  0  0  0  0  0  0  0
    2.6332    3.6441    2.0202 H   0  0  0  0  0  0  0  0  0  0  0  0
    2.9771    5.5974    2.7975 H   0  0  0  0  0  0  0  0  0  0  0  0
    3.4495    7.8395    3.6917 H   0  0  0  0  0  0  0  0  0  0  0  0
    5.7518    8.7060    3.6990 H   0  0  0  0  0  0  0  0  0  0  0  0
    7.5960    7.3330    2.8242 H   0  0  0  0  0  0  0  0  0  0  0  0
    7.1470    5.0839    1.9357 H   0  0  0  0  0  0  0  0  0  0  0  0
    2.6769    0.2609    2.8777 H   0  0  0  0  0  0  0  0  0  0  0  0
   -0.1969    0.7824    1.9975 H   0  0  0  0  0  0  0  0  0  0  0  0
    0.3445    0.2322    3.6014 H   0  0  0  0  0  0  0  0  0  0  0  0
    0.7481    1.8724    3.0402 H   0  0  0  0  0  0  0  0  0  0  0  0
    2.5919   -1.4897    1.1450 H   0  0  0  0  0  0  0  0  0  0  0  0
    1.3007   -1.7502    2.3422 H   0  0  0  0  0  0  0  0  0  0  0  0
    0.9135   -1.0432    0.7552 H   0  0  0  0  0  0  0  0  0  0  0  0
    6.2207   -0.2761   -0.2060 O   0  5  0  0  0  0  0  0  0  0  0  0
  1  2  1  0  0  0  0
  1 27  1  0  0  0  0
  1 28  1  0  0  0  0
  1 29  1  0  0  0  0
  2  7  1  0  0  0  0
  2  3  1  0  0  0  0
  2 30  1  0  0  0  0
  3  4  1  0  0  0  0
  3 31  1  0  0  0  0
  3 32  1  0  0  0  0
  4  5  1  0  0  0  0
  4 33  1  0  0  0  0
  4 34  1  0  0  0  0
  5  6  1  0  0  0  0
  5  8  1  0  0  0  0
  5 35  1  0  0  0  0
  6  7  1  0  0  0  0
  6 36  1  0  0  0  0
  6 37  1  0  0  0  0
  7 38  1  0  0  0  0
  7 39  1  0  0  0  0
  8  9  2  0  0  0  0
  8 10  1  0  0  0  0
 10 11  1  0  0  0  0
 10 24  1  0  0  0  0
 11 15  2  0  0  0  0
 11 12  1  0  0  0  0
 12 13  2  0  0  0  0
 12 40  1  0  0  0  0
 13 14  1  0  0  0  0
 13 18  1  0  0  0  0
 14 15  1  0  0  0  0
 15 16  1  0  0  0  0
 16 17  2  0  0  0  0
 16 53  1  0  0  0  0
 18 23  2  0  0  0  0
 18 19  1  0  0  0  0
 19 20  2  0  0  0  0
 19 41  1  0  0  0  0
 20 21  1  0  0  0  0
 20 42  1  0  0  0  0
 21 22  2  0  0  0  0
 21 43  1  0  0  0  0
 22 23  1  0  0  0  0
 22 44  1  0  0  0  0
 23 45  1  0  0  0  0
 24 25  1  0  0  0  0
 24 26  1  0  0  0  0
 24 46  1  0  0  0  0
 25 47  1  0  0  0  0
 25 48  1  0  0  0  0
 25 49  1  0  0  0  0
 26 50  1  0  0  0  0
 26 51  1  0  0  0  0
 26 52  1  0  0  0  0
M  CHG  1  53  -1
M  END
$$$$
ZINC03654521
  -OEChem-08230709463D

 54 56  0     1  0  0  0  0  0999 V2000
   -0.1952   -4.9770    2.4821 C   0  0  0  0  0  0  0  0  0  0  0  0
   -0.3504   -3.4752    2.7296 C   0  0  1  0  0  0  0  0  0  0  0  0
   -0.0197   -3.2375    3.7406 H   0  0  0  0  0  0  0  0  0  0  0  0
    0.4995   -2.7014    1.7197 C   0  0  0  0  0  0  0  0  0  0  0  0
    0.3442   -1.1995    1.9672 C   0  0  0  0  0  0  0  0  0  0  0  0
   -1.1252   -0.8052    1.8054 C   0  0  1  0  0  0  0  0  0  0  0  0
   -1.4560   -1.0429    0.7944 H   0  0  0  0  0  0  0  0  0  0  0  0
   -1.9751   -1.5790    2.8152 C   0  0  1  0  0  0  0  0  0  0  0  0
   -3.0219   -1.2981    2.6999 H   0  0  0  0  0  0  0  0  0  0  0  0
   -1.8199   -3.0809    2.5677 C   0  0  0  0  0  0  0  0  0  0  0  0
   -1.5415   -1.2674    4.1407 O   0  0  0  0  0  0  0  0  0  0  0  0
   -1.2781    0.6741    2.0492 C   0  0  0  0  0  0  0  0  0  0  0  0
   -1.7071    1.0725    3.1114 O   0  0  0  0  0  0  0  0  0  0  0  0
   -0.9382    1.5543    1.0869 N   0  0  0  0  0  0  0  0  0  0  0  0
   -1.0103    2.9251    1.3380 C   0  0  0  0  0  0  0  0  0  0  0  0
   -2.1618    3.6280    1.0819 C   0  0  0  0  0  0  0  0  0  0  0  0
   -2.1865    4.9851    1.3466 C   0  0  0  0  0  0  0  0  0  0  0  0
   -0.5425    5.2827    1.9744 S   0  0  0  0  0  0  0  0  0  0  0  0
    0.0841    3.6151    1.8613 C   0  0  0  0  0  0  0  0  0  0  0  0
    1.3620    3.1205    2.2104 C   0  0  0  0  0  0  0  0  0  0  0  0
    1.6188    1.9399    2.0628 O   0  0  0  0  0  0  0  0  0  0  0  0
   -3.2940    5.9456    1.1580 C   0  0  0  0  0  0  0  0  0  0  0  0
   -4.5170    5.5130    0.6428 C   0  0  0  0  0  0  0  0  0  0  0  0
   -5.5483    6.4137    0.4742 C   0  0  0  0  0  0  0  0  0  0  0  0
   -5.3689    7.7452    0.8047 C   0  0  0  0  0  0  0  0  0  0  0  0
   -4.1573    8.1817    1.3105 C   0  0  0  0  0  0  0  0  0  0  0  0
   -3.1195    7.2904    1.4890 C   0  0  0  0  0  0  0  0  0  0  0  0
   -0.4928    1.0721   -0.2228 C   0  0  0  0  0  0  0  0  0  0  0  0
    0.8641    1.6930   -0.5606 C   0  0  0  0  0  0  0  0  0  0  0  0
   -1.5158    1.4714   -1.2882 C   0  0  0  0  0  0  0  0  0  0  0  0
   -0.5260   -5.2148    1.4710 H   0  0  0  0  0  0  0  0  0  0  0  0
    0.8516   -5.2580    2.5974 H   0  0  0  0  0  0  0  0  0  0  0  0
   -0.8007   -5.5283    3.2015 H   0  0  0  0  0  0  0  0  0  0  0  0
    1.5463   -2.9823    1.8350 H   0  0  0  0  0  0  0  0  0  0  0  0
    0.1687   -2.9391    0.7087 H   0  0  0  0  0  0  0  0  0  0  0  0
    0.9497   -0.6482    1.2478 H   0  0  0  0  0  0  0  0  0  0  0  0
    0.6750   -0.9618    2.9783 H   0  0  0  0  0  0  0  0  0  0  0  0
   -2.4254   -3.6321    3.2872 H   0  0  0  0  0  0  0  0  0  0  0  0
   -2.1506   -3.3186    1.5567 H   0  0  0  0  0  0  0  0  0  0  0  0
   -2.0374   -1.7236    4.8343 H   0  0  0  0  0  0  0  0  0  0  0  0
   -3.0322    3.1301    0.6806 H   0  0  0  0  0  0  0  0  0  0  0  0
   -4.6568    4.4748    0.3802 H   0  0  0  0  0  0  0  0  0  0  0  0
   -6.4965    6.0794    0.0798 H   0  0  0  0  0  0  0  0  0  0  0  0
   -6.1781    8.4470    0.6669 H   0  0  0  0  0  0  0  0  0  0  0  0
   -4.0238    9.2224    1.5665 H   0  0  0  0  0  0  0  0  0  0  0  0
   -2.1744    7.6323    1.8842 H   0  0  0  0  0  0  0  0  0  0  0  0
   -0.3994   -0.0136   -0.1977 H   0  0  0  0  0  0  0  0  0  0  0  0
    0.7706    2.7787   -0.5858 H   0  0  0  0  0  0  0  0  0  0  0  0
    1.5929    1.4086    0.1983 H   0  0  0  0  0  0  0  0  0  0  0  0
    1.1954    1.3342   -1.5351 H   0  0  0  0  0  0  0  0  0  0  0  0
   -1.1845    1.1126   -2.2626 H   0  0  0  0  0  0  0  0  0  0  0  0
   -2.4825    1.0290   -1.0475 H   0  0  0  0  0  0  0  0  0  0  0  0
   -1.6093    2.5571   -1.3133 H   0  0  0  0  0  0  0  0  0  0  0  0
    2.2972    3.9577    2.7074 O   0  5  0  0  0  0  0  0  0  0  0  0
  1  2  1  0  0  0  0
  1 31  1  0  0  0  0
  1 32  1  0  0  0  0
  1 33  1  0  0  0  0
  2  3  1  0  0  0  0
  2 10  1  0  0  0  0
  2  4  1  0  0  0  0
  4  5  1  0  0  0  0
  4 34  1  0  0  0  0
  4 35  1  0  0  0  0
  5  6  1  0  0  0  0
  5 36  1  0  0  0  0
  5 37  1  0  0  0  0
  6  7  1  0  0  0  0
  6  8  1  0  0  0  0
  6 12  1  0  0  0  0
  8  9  1  0  0  0  0
  8 10  1  0  0  0  0
  8 11  1  0  0  0  0
 10 38  1  0  0  0  0
 10 39  1  0  0  0  0
 11 40  1  0  0  0  0
 12 13  2  0  0  0  0
 12 14  1  0  0  0  0
 14 15  1  0  0  0  0
 14 28  1  0  0  0  0
 15 19  2  0  0  0  0
 15 16  1  0  0  0  0
 16 17  2  0  0  0  0
 16 41  1  0  0  0  0
 17 18  1  0  0  0  0
 17 22  1  0  0  0  0
 18 19  1  0  0  0  0
 19 20  1  0  0  0  0
 20 21  2  0  0  0  0
 20 54  1  0  0  0  0
 22 27  2  0  0  0  0
 22 23  1  0  0  0  0
 23 24  2  0  0  0  0
 23 42  1  0  0  0  0
 24 25  1  0  0  0  0
 24 43  1  0  0  0  0
 25 26  2  0  0  0  0
 25 44  1  0  0  0  0
 26 27  1  0  0  0  0
 26 45  1  0  0  0  0
 27 46  1  0  0  0  0
 28 29  1  0  0  0  0
 28 30  1  0  0  0  0
 28 47  1  0  0  0  0
 29 48  1  0  0  0  0
 29 49  1  0  0  0  0
 29 50  1  0  0  0  0
 30 51  1  0  0  0  0
 30 52  1  0  0  0  0
 30 53  1  0  0  0  0
M  CHG  1  54  -1
M  END
$$$$
ZINC03680467
  -OEChem-08230709463D

 53 56  0     1  0  0  0  0  0999 V2000
    4.5217    2.6980   -2.9316 C   0  0  0  0  0  0  0  0  0  0  0  0
    3.4964    1.5708   -3.0689 C   0  0  0  0  0  0  0  0  0  0  0  0
    2.1709    2.0831   -2.7704 O   0  0  0  0  0  0  0  0  0  0  0  0
    1.1456    1.2101   -2.8462 C   0  0  0  0  0  0  0  0  0  0  0  0
    1.3544    0.0518   -3.1537 O   0  0  0  0  0  0  0  0  0  0  0  0
   -0.2190    1.6566   -2.5585 C   0  0  0  0  0  0  0  0  0  0  0  0
   -0.7638    1.5976   -1.2157 C   0  0  0  0  0  0  0  0  0  0  0  0
   -2.0357    2.0405   -1.0876 C   0  0  0  0  0  0  0  0  0  0  0  0
   -2.5098    2.5310   -2.7185 S   0  0  0  0  0  0  0  0  0  0  0  0
   -1.0429    2.1540   -3.5616 C   0  0  0  0  0  0  0  0  0  0  0  0
   -0.7601    2.3103   -4.9095 N   0  0  0  0  0  0  0  0  0  0  0  0
   -1.6944    2.8139   -5.7401 C   0  0  0  0  0  0  0  0  0  0  0  0
   -2.7825    3.1305   -5.3081 O   0  0  0  0  0  0  0  0  0  0  0  0
   -1.3869    2.9838   -7.2056 C   0  0  2  0  0  0  0  0  0  0  0  0
   -0.5100    3.6169   -7.3411 H   0  0  0  0  0  0  0  0  0  0  0  0
   -2.6176    3.5815   -7.9591 C   0  0  1  0  0  0  0  0  0  0  0  0
   -2.7748    4.6548   -7.8517 H   0  0  0  0  0  0  0  0  0  0  0  0
   -2.3446    3.0509   -9.4141 C   0  0  0  0  0  0  0  0  0  0  0  0
   -2.3081    1.5467   -8.9570 C   0  0  1  0  0  0  0  0  0  0  0  0
   -2.1885    0.8000   -9.7420 H   0  0  0  0  0  0  0  0  0  0  0  0
   -1.1774    1.6064   -7.8810 C   0  0  1  0  0  0  0  0  0  0  0  0
   -1.2961    0.8017   -7.1553 H   0  0  0  0  0  0  0  0  0  0  0  0
    0.1792    1.5372   -8.5336 C   0  0  0  0  0  0  0  0  0  0  0  0
    0.9255    2.4858   -8.4779 O   0  0  0  0  0  0  0  0  0  0  0  0
   -3.6020    1.4920   -8.1357 C   0  0  0  0  0  0  0  0  0  0  0  0
   -3.7804    2.6644   -7.5607 C   0  0  0  0  0  0  0  0  0  0  0  0
   -2.8298    2.0859    0.1802 C   0  0  0  0  0  0  0  0  0  0  0  0
   -2.1416    1.2922    1.1602 O   0  0  0  0  0  0  0  0  0  0  0  0
   -0.7439    1.5869    1.2577 C   0  0  0  0  0  0  0  0  0  0  0  0
   -0.0127    1.0858    0.0080 C   0  0  0  0  0  0  0  0  0  0  0  0
   -0.1640    0.8985    2.4949 C   0  0  0  0  0  0  0  0  0  0  0  0
   -0.5516    3.0994    1.3855 C   0  0  0  0  0  0  0  0  0  0  0  0
    4.2764    3.4992   -3.6287 H   0  0  0  0  0  0  0  0  0  0  0  0
    4.5026    3.0845   -1.9126 H   0  0  0  0  0  0  0  0  0  0  0  0
    5.5167    2.3134   -3.1557 H   0  0  0  0  0  0  0  0  0  0  0  0
    3.7417    0.7696   -2.3718 H   0  0  0  0  0  0  0  0  0  0  0  0
    3.5155    1.1843   -4.0879 H   0  0  0  0  0  0  0  0  0  0  0  0
    0.1102    2.0571   -5.2549 H   0  0  0  0  0  0  0  0  0  0  0  0
   -3.1686    3.2601  -10.0963 H   0  0  0  0  0  0  0  0  0  0  0  0
   -1.3880    3.3918   -9.8103 H   0  0  0  0  0  0  0  0  0  0  0  0
   -4.2564    0.6377   -8.0442 H   0  0  0  0  0  0  0  0  0  0  0  0
   -4.6055    2.9337   -6.9180 H   0  0  0  0  0  0  0  0  0  0  0  0
   -2.9091    3.1155    0.5291 H   0  0  0  0  0  0  0  0  0  0  0  0
   -3.8250    1.6766    0.0070 H   0  0  0  0  0  0  0  0  0  0  0  0
    0.0021   -0.0041    0.0020 H   0  0  0  0  0  0  0  0  0  0  0  0
    1.0080    1.4681    0.0003 H   0  0  0  0  0  0  0  0  0  0  0  0
    0.8977    1.1314    2.5760 H   0  0  0  0  0  0  0  0  0  0  0  0
   -0.6830    1.2538    3.3851 H   0  0  0  0  0  0  0  0  0  0  0  0
   -0.2936   -0.1800    2.4048 H   0  0  0  0  0  0  0  0  0  0  0  0
   -0.9581    3.5932    0.5029 H   0  0  0  0  0  0  0  0  0  0  0  0
   -1.0712    3.4579    2.2741 H   0  0  0  0  0  0  0  0  0  0  0  0
    0.5115    3.3246    1.4705 H   0  0  0  0  0  0  0  0  0  0  0  0
    0.5584    0.4218   -9.1769 O   0  5  0  0  0  0  0  0  0  0  0  0
  1  2  1  0  0  0  0
  1 33  1  0  0  0  0
  1 34  1  0  0  0  0
  1 35  1  0  0  0  0
  2  3  1  0  0  0  0
  2 36  1  0  0  0  0
  2 37  1  0  0  0  0
  3  4  1  0  0  0  0
  4  5  2  0  0  0  0
  4  6  1  0  0  0  0
  6 10  2  0  0  0  0
  6  7  1  0  0  0  0
  7 30  1  0  0  0  0
  7  8  2  0  0  0  0
  8  9  1  0  0  0  0
  8 27  1  0  0  0  0
  9 10  1  0  0  0  0
 10 11  1  0  0  0  0
 11 12  1  0  0  0  0
 11 38  1  0  0  0  0
 12 13  2  0  0  0  0
 12 14  1  0  0  0  0
 14 15  1  0  0  0  0
 14 21  1  0  0  0  0
 14 16  1  0  0  0  0
 16 17  1  0  0  0  0
 16 26  1  0  0  0  0
 16 18  1  0  0  0  0
 18 19  1  0  0  0  0
 18 39  1  0  0  0  0
 18 40  1  0  0  0  0
 19 20  1  0  0  0  0
 19 21  1  0  0  0  0
 19 25  1  0  0  0  0
 21 22  1  0  0  0  0
 21 23  1  0  0  0  0
 23 24  2  0  0  0  0
 23 53  1  0  0  0  0
 25 26  2  0  0  0  0
 25 41  1  0  0  0  0
 26 42  1  0  0  0  0
 27 28  1  0  0  0  0
 27 43  1  0  0  0  0
 27 44  1  0  0  0  0
 28 29  1  0  0  0  0
 29 30  1  0  0  0  0
 29 31  1  0  0  0  0
 29 32  1  0  0  0  0
 30 45  1  0  0  0  0
 30 46  1  0  0  0  0
 31 47  1  0  0  0  0
 31 48  1  0  0  0  0
 31 49  1  0  0  0  0
 32 50  1  0  0  0  0
 32 51  1  0  0  0  0
 32 52  1  0  0  0  0
M  CHG  1  53  -1
M  END
$$$$
ZINC03742578
  -OEChem-08230709463D

 51 53  0     0  0  0  0  0  0999 V2000
   -8.3249    0.7927    4.7890 C   0  0  0  0  0  0  0  0  0  0  0  0
   -6.8927    0.2544    4.7933 C   0  0  0  0  0  0  0  0  0  0  0  0
   -6.8917   -1.0930    5.2693 O   0  0  0  0  0  0  0  0  0  0  0  0
   -5.6885   -1.7234    5.3358 C   0  0  0  0  0  0  0  0  0  0  0  0
   -4.5379   -1.0595    4.9519 C   0  0  0  0  0  0  0  0  0  0  0  0
   -3.3046   -1.7092    5.0218 C   0  0  0  0  0  0  0  0  0  0  0  0
   -3.2386   -3.0281    5.4736 C   0  0  0  0  0  0  0  0  0  0  0  0
   -4.3893   -3.6831    5.8606 C   0  0  0  0  0  0  0  0  0  0  0  0
   -5.6150   -3.0376    5.7911 C   0  0  0  0  0  0  0  0  0  0  0  0
   -6.7472   -3.6893    6.1679 O   0  0  0  0  0  0  0  0  0  0  0  0
   -6.5995   -5.0352    6.6248 C   0  0  0  0  0  0  0  0  0  0  0  0
   -2.0713   -1.0037    4.6125 C   0  0  0  0  0  0  0  0  0  0  0  0
   -0.9022   -1.0091    5.3001 C   0  0  0  0  0  0  0  0  0  0  0  0
    0.0423   -0.1908    4.5413 C   0  0  0  0  0  0  0  0  0  0  0  0
    1.3779    0.1749    4.7330 C   0  0  0  0  0  0  0  0  0  0  0  0
    2.0003    0.9745    3.8169 C   0  0  0  0  0  0  0  0  0  0  0  0
    1.3183    1.4239    2.6941 C   0  0  0  0  0  0  0  0  0  0  0  0
    0.0000    1.0800    2.4877 C   0  0  0  0  0  0  0  0  0  0  0  0
   -0.6544    0.2662    3.4065 C   0  0  0  0  0  0  0  0  0  0  0  0
   -1.9333   -0.2418    3.4753 N   0  0  0  0  0  0  0  0  0  0  0  0
   -2.6316   -0.0855    2.8205 H   0  0  0  0  0  0  0  0  0  0  0  0
   -0.7288    1.5792    1.2668 C   0  0  0  0  0  0  0  0  0  0  0  0
   -0.0127    1.0858    0.0080 C   0  0  0  0  0  0  0  0  0  0  0  0
   -0.7496    3.1091    1.2752 C   0  0  0  0  0  0  0  0  0  0  0  0
   -0.6286   -1.7232    6.5987 C   0  0  0  0  0  0  0  0  0  0  0  0
   -0.9553   -0.8105    7.7525 C   0  0  0  0  0  0  0  0  0  0  0  0
   -1.3679    0.3055    7.5419 O   0  0  0  0  0  0  0  0  0  0  0  0
   -8.3257    1.8204    4.4260 H   0  0  0  0  0  0  0  0  0  0  0  0
   -8.9428    0.1762    4.1361 H   0  0  0  0  0  0  0  0  0  0  0  0
   -8.7265    0.7648    5.8020 H   0  0  0  0  0  0  0  0  0  0  0  0
   -6.2748    0.8708    5.4462 H   0  0  0  0  0  0  0  0  0  0  0  0
   -6.4911    0.2822    3.7804 H   0  0  0  0  0  0  0  0  0  0  0  0
   -4.5934   -0.0403    4.5989 H   0  0  0  0  0  0  0  0  0  0  0  0
   -2.2860   -3.5345    5.5240 H   0  0  0  0  0  0  0  0  0  0  0  0
   -4.3363   -4.7023    6.2138 H   0  0  0  0  0  0  0  0  0  0  0  0
   -7.5765   -5.4371    6.8932 H   0  0  0  0  0  0  0  0  0  0  0  0
   -6.1622   -5.6422    5.8320 H   0  0  0  0  0  0  0  0  0  0  0  0
   -5.9470   -5.0530    7.4978 H   0  0  0  0  0  0  0  0  0  0  0  0
    1.9157   -0.1734    5.6024 H   0  0  0  0  0  0  0  0  0  0  0  0
    3.0321    1.2566    3.9654 H   0  0  0  0  0  0  0  0  0  0  0  0
    1.8254    2.0519    1.9766 H   0  0  0  0  0  0  0  0  0  0  0  0
   -1.7514    1.2020    1.2746 H   0  0  0  0  0  0  0  0  0  0  0  0
    0.0021   -0.0041    0.0020 H   0  0  0  0  0  0  0  0  0  0  0  0
    1.0099    1.4631    0.0003 H   0  0  0  0  0  0  0  0  0  0  0  0
   -0.5399    1.4469   -0.8751 H   0  0  0  0  0  0  0  0  0  0  0  0
   -1.2768    3.4701    0.3922 H   0  0  0  0  0  0  0  0  0  0  0  0
   -1.2598    3.4606    2.1720 H   0  0  0  0  0  0  0  0  0  0  0  0
    0.2730    3.4864    1.2675 H   0  0  0  0  0  0  0  0  0  0  0  0
   -1.2467   -2.6191    6.6578 H   0  0  0  0  0  0  0  0  0  0  0  0
    0.4236   -2.0041    6.6442 H   0  0  0  0  0  0  0  0  0  0  0  0
   -0.7878   -1.2372    9.0140 O   0  5  0  0  0  0  0  0  0  0  0  0
  1  2  1  0  0  0  0
  1 28  1  0  0  0  0
  1 29  1  0  0  0  0
  1 30  1  0  0  0  0
  2  3  1  0  0  0  0
  2 31  1  0  0  0  0
  2 32  1  0  0  0  0
  3  4  1  0  0  0  0
  4  9  2  0  0  0  0
  4  5  1  0  0  0  0
  5  6  2  0  0  0  0
  5 33  1  0  0  0  0
  6  7  1  0  0  0  0
  6 12  1  0  0  0  0
  7  8  2  0  0  0  0
  7 34  1  0  0  0  0
  8  9  1  0  0  0  0
  8 35  1  0  0  0  0
  9 10  1  0  0  0  0
 10 11  1  0  0  0  0
 11 36  1  0  0  0  0
 11 37  1  0  0  0  0
 11 38  1  0  0  0  0
 12 20  1  0  0  0  0
 12 13  2  0  0  0  0
 13 14  1  0  0  0  0
 13 25  1  0  0  0  0
 14 19  2  0  0  0  0
 14 15  1  0  0  0  0
 15 16  2  0  0  0  0
 15 39  1  0  0  0  0
 16 17  1  0  0  0  0
 16 40  1  0  0  0  0
 17 18  2  0  0  0  0
 17 41  1  0  0  0  0
 18 19  1  0  0  0  0
 18 22  1  0  0  0  0
 19 20  1  0  0  0  0
 20 21  1  0  0  0  0
 22 23  1  0  0  0  0
 22 24  1  0  0  0  0
 22 42  1  0  0  0  0
 23 43  1  0  0  0  0
 23 44  1  0  0  0  0
 23 45  1  0  0  0  0
 24 46  1  0  0  0  0
 24 47  1  0  0  0  0
 24 48  1  0  0  0  0
 25 26  1  0  0  0  0
 25 49  1  0  0  0  0
 25 50  1  0  0  0  0
 26 27  2  0  0  0  0
 26 51  1  0  0  0  0
M  CHG  1  51  -1
M  END
$$$$
ZINC03746141
  -OEChem-08230709463D

 51 53  0     0  0  0  0  0  0999 V2000
    7.9295    1.0971    5.0334 C   0  0  0  0  0  0  0  0  0  0  0  0
    7.2725    1.2306    3.6581 C   0  0  0  0  0  0  0  0  0  0  0  0
    7.3539   -0.1083    2.9220 C   0  0  0  0  0  0  0  0  0  0  0  0
    8.0012    2.3037    2.8467 C   0  0  0  0  0  0  0  0  0  0  0  0
    5.8276    1.6236    3.8276 C   0  0  0  0  0  0  0  0  0  0  0  0
    5.3077    1.8029    5.1023 C   0  0  0  0  0  0  0  0  0  0  0  0
    3.9896    2.1631    5.2800 C   0  0  0  0  0  0  0  0  0  0  0  0
    3.1683    2.3495    4.1729 C   0  0  0  0  0  0  0  0  0  0  0  0
    3.6996    2.1662    2.8821 C   0  0  0  0  0  0  0  0  0  0  0  0
    5.0398    1.8006    2.7257 C   0  0  0  0  0  0  0  0  0  0  0  0
    2.6069    2.4310    1.9477 C   0  0  0  0  0  0  0  0  0  0  0  0
    1.5180    2.7473    2.6921 C   0  0  0  0  0  0  0  0  0  0  0  0
    1.8454    2.7063    4.0277 N   0  0  0  0  0  0  0  0  0  0  0  0
    1.2358    2.8975    4.7576 H   0  0  0  0  0  0  0  0  0  0  0  0
    0.1855    3.0897    2.1511 C   0  0  0  0  0  0  0  0  0  0  0  0
   -0.8951    2.2286    2.3515 C   0  0  0  0  0  0  0  0  0  0  0  0
   -2.1357    2.5484    1.8410 C   0  0  0  0  0  0  0  0  0  0  0  0
   -2.3177    3.7238    1.1331 C   0  0  0  0  0  0  0  0  0  0  0  0
   -1.2548    4.5901    0.9314 C   0  0  0  0  0  0  0  0  0  0  0  0
    0.0007    4.2799    1.4410 C   0  0  0  0  0  0  0  0  0  0  0  0
    1.0453    5.1273    1.2451 O   0  0  0  0  0  0  0  0  0  0  0  0
    1.3110    6.0791    2.2773 C   0  0  0  0  0  0  0  0  0  0  0  0
   -1.4402    5.7437    0.2353 O   0  0  0  0  0  0  0  0  0  0  0  0
   -2.7564    5.9984   -0.2595 C   0  0  0  0  0  0  0  0  0  0  0  0
    2.6769    2.3651    0.4437 C   0  0  0  0  0  0  0  0  0  0  0  0
    3.2165    3.6664   -0.0915 C   0  0  0  0  0  0  0  0  0  0  0  0
    3.5138    4.5560    0.6701 O   0  0  0  0  0  0  0  0  0  0  0  0
    7.4103    0.3326    5.6114 H   0  0  0  0  0  0  0  0  0  0  0  0
    8.9746    0.8128    4.9108 H   0  0  0  0  0  0  0  0  0  0  0  0
    7.8715    2.0510    5.5578 H   0  0  0  0  0  0  0  0  0  0  0  0
    6.8858   -0.0132    1.9422 H   0  0  0  0  0  0  0  0  0  0  0  0
    8.3990   -0.3926    2.7994 H   0  0  0  0  0  0  0  0  0  0  0  0
    6.8348   -0.8728    3.5000 H   0  0  0  0  0  0  0  0  0  0  0  0
    7.9432    3.2575    3.3711 H   0  0  0  0  0  0  0  0  0  0  0  0
    9.0463    2.0194    2.7241 H   0  0  0  0  0  0  0  0  0  0  0  0
    7.5331    2.3988    1.8669 H   0  0  0  0  0  0  0  0  0  0  0  0
    5.9431    1.6589    5.9637 H   0  0  0  0  0  0  0  0  0  0  0  0
    3.5953    2.3007    6.2760 H   0  0  0  0  0  0  0  0  0  0  0  0
    5.4510    1.6587    1.7371 H   0  0  0  0  0  0  0  0  0  0  0  0
   -0.7585    1.3100    2.9029 H   0  0  0  0  0  0  0  0  0  0  0  0
   -2.9689    1.8785    1.9940 H   0  0  0  0  0  0  0  0  0  0  0  0
   -3.2921    3.9668    0.7358 H   0  0  0  0  0  0  0  0  0  0  0  0
    2.2187    6.6325    2.0363 H   0  0  0  0  0  0  0  0  0  0  0  0
    1.4438    5.5588    3.2259 H   0  0  0  0  0  0  0  0  0  0  0  0
    0.4734    6.7719    2.3570 H   0  0  0  0  0  0  0  0  0  0  0  0
   -3.0513    5.1969   -0.9368 H   0  0  0  0  0  0  0  0  0  0  0  0
   -3.4558    6.0443    0.5753 H   0  0  0  0  0  0  0  0  0  0  0  0
   -2.7660    6.9481   -0.7943 H   0  0  0  0  0  0  0  0  0  0  0  0
    3.3351    1.5489    0.1461 H   0  0  0  0  0  0  0  0  0  0  0  0
    1.6789    2.1924    0.0408 H   0  0  0  0  0  0  0  0  0  0  0  0
    3.3670    3.8371   -1.4144 O   0  5  0  0  0  0  0  0  0  0  0  0
  1  2  1  0  0  0  0
  1 28  1  0  0  0  0
  1 29  1  0  0  0  0
  1 30  1  0  0  0  0
  2  3  1  0  0  0  0
  2  4  1  0  0  0  0
  2  5  1  0  0  0  0
  3 31  1  0  0  0  0
  3 32  1  0  0  0  0
  3 33  1  0  0  0  0
  4 34  1  0  0  0  0
  4 35  1  0  0  0  0
  4 36  1  0  0  0  0
  5 10  2  0  0  0  0
  5  6  1  0  0  0  0
  6  7  2  0  0  0  0
  6 37  1  0  0  0  0
  7  8  1  0  0  0  0
  7 38  1  0  0  0  0
  8 13  1  0  0  0  0
  8  9  2  0  0  0  0
  9 10  1  0  0  0  0
  9 11  1  0  0  0  0
 10 39  1  0  0  0  0
 11 12  2  0  0  0  0
 11 25  1  0  0  0  0
 12 13  1  0  0  0  0
 12 15  1  0  0  0  0
 13 14  1  0  0  0  0
 15 20  2  0  0  0  0
 15 16  1  0  0  0  0
 16 17  2  0  0  0  0
 16 40  1  0  0  0  0
 17 18  1  0  0  0  0
 17 41  1  0  0  0  0
 18 19  2  0  0  0  0
 18 42  1  0  0  0  0
 19 20  1  0  0  0  0
 19 23  1  0  0  0  0
 20 21  1  0  0  0  0
 21 22  1  0  0  0  0
 22 43  1  0  0  0  0
 22 44  1  0  0  0  0
 22 45  1  0  0  0  0
 23 24  1  0  0  0  0
 24 46  1  0  0  0  0
 24 47  1  0  0  0  0
 24 48  1  0  0  0  0
 25 26  1  0  0  0  0
 25 49  1  0  0  0  0
 25 50  1  0  0  0  0
 26 27  2  0  0  0  0
 26 51  1  0  0  0  0
M  CHG  1  51  -1
M  END
$$$$
ZINC03746148
  -OEChem-08230709463D

 54 56  0     0  0  0  0  0  0999 V2000
   -0.0187    1.5258    0.0104 C   0  0  0  0  0  0  0  0  0  0  0  0
    0.0021   -0.0041    0.0020 C   0  0  0  0  0  0  0  0  0  0  0  0
    0.6709   -0.4649   -1.1737 O   0  0  0  0  0  0  0  0  0  0  0  0
    0.7768   -1.8110   -1.3363 C   0  0  0  0  0  0  0  0  0  0  0  0
    0.2491   -2.6658   -0.3861 C   0  0  0  0  0  0  0  0  0  0  0  0
    0.3596   -4.0467   -0.5560 C   0  0  0  0  0  0  0  0  0  0  0  0
    1.0021   -4.5590   -1.6841 C   0  0  0  0  0  0  0  0  0  0  0  0
    1.5265   -3.7009   -2.6284 C   0  0  0  0  0  0  0  0  0  0  0  0
    1.4118   -2.3286   -2.4626 C   0  0  0  0  0  0  0  0  0  0  0  0
    1.9249   -1.4870   -3.3990 O   0  0  0  0  0  0  0  0  0  0  0  0
    2.5629   -2.0852   -4.5291 C   0  0  0  0  0  0  0  0  0  0  0  0
   -0.2035   -4.9652    0.4569 C   0  0  0  0  0  0  0  0  0  0  0  0
    0.4229   -6.0609    0.9534 C   0  0  0  0  0  0  0  0  0  0  0  0
   -0.4867   -6.6689    1.9231 C   0  0  0  0  0  0  0  0  0  0  0  0
   -0.4101   -7.7947    2.7484 C   0  0  0  0  0  0  0  0  0  0  0  0
   -1.4606   -8.1119    3.5619 C   0  0  0  0  0  0  0  0  0  0  0  0
   -2.6047   -7.3254    3.5756 C   0  0  0  0  0  0  0  0  0  0  0  0
   -2.7016   -6.2112    2.7707 C   0  0  0  0  0  0  0  0  0  0  0  0
   -1.6446   -5.8683    1.9341 C   0  0  0  0  0  0  0  0  0  0  0  0
   -1.4454   -4.8427    1.0359 N   0  0  0  0  0  0  0  0  0  0  0  0
   -2.0848   -4.1396    0.8412 H   0  0  0  0  0  0  0  0  0  0  0  0
   -1.3773   -9.3256    4.4513 C   0  0  0  0  0  0  0  0  0  0  0  0
   -0.1948   -9.1750    5.4103 C   0  0  0  0  0  0  0  0  0  0  0  0
   -2.6723   -9.4586    5.2553 C   0  0  0  0  0  0  0  0  0  0  0  0
   -1.1804  -10.5756    3.5913 C   0  0  0  0  0  0  0  0  0  0  0  0
    1.7963   -6.5557    0.5791 C   0  0  0  0  0  0  0  0  0  0  0  0
    2.8214   -5.9284    1.4883 C   0  0  0  0  0  0  0  0  0  0  0  0
    2.4725   -5.1585    2.3517 O   0  0  0  0  0  0  0  0  0  0  0  0
    1.0039    1.9031    0.0027 H   0  0  0  0  0  0  0  0  0  0  0  0
   -0.5459    1.8868   -0.8726 H   0  0  0  0  0  0  0  0  0  0  0  0
   -0.5289    1.8773    0.9072 H   0  0  0  0  0  0  0  0  0  0  0  0
    0.5293   -0.3651    0.8851 H   0  0  0  0  0  0  0  0  0  0  0  0
   -1.0205   -0.3814    0.0098 H   0  0  0  0  0  0  0  0  0  0  0  0
   -0.2478   -2.2658    0.4854 H   0  0  0  0  0  0  0  0  0  0  0  0
    1.0885   -5.6271   -1.8179 H   0  0  0  0  0  0  0  0  0  0  0  0
    2.0232   -4.0986   -3.5011 H   0  0  0  0  0  0  0  0  0  0  0  0
    3.4014   -2.6949   -4.1924 H   0  0  0  0  0  0  0  0  0  0  0  0
    1.8474   -2.7130   -5.0602 H   0  0  0  0  0  0  0  0  0  0  0  0
    2.9266   -1.3041   -5.1967 H   0  0  0  0  0  0  0  0  0  0  0  0
    0.4766   -8.4112    2.7432 H   0  0  0  0  0  0  0  0  0  0  0  0
   -3.4271   -7.5897    4.2237 H   0  0  0  0  0  0  0  0  0  0  0  0
   -3.5958   -5.6057    2.7895 H   0  0  0  0  0  0  0  0  0  0  0  0
   -0.3351   -8.2845    6.0231 H   0  0  0  0  0  0  0  0  0  0  0  0
   -0.1345  -10.0528    6.0536 H   0  0  0  0  0  0  0  0  0  0  0  0
    0.7277   -9.0803    4.8376 H   0  0  0  0  0  0  0  0  0  0  0  0
   -3.5147   -9.5659    4.5721 H   0  0  0  0  0  0  0  0  0  0  0  0
   -2.6120  -10.3365    5.8986 H   0  0  0  0  0  0  0  0  0  0  0  0
   -2.8126   -8.5681    5.8680 H   0  0  0  0  0  0  0  0  0  0  0  0
   -0.2579  -10.4809    3.0185 H   0  0  0  0  0  0  0  0  0  0  0  0
   -1.1202  -11.4535    4.2345 H   0  0  0  0  0  0  0  0  0  0  0  0
   -2.0229  -10.6830    2.9080 H   0  0  0  0  0  0  0  0  0  0  0  0
    1.8329   -7.6401    0.6838 H   0  0  0  0  0  0  0  0  0  0  0  0
    2.0116   -6.2830   -0.4541 H   0  0  0  0  0  0  0  0  0  0  0  0
    4.1219   -6.2249    1.3390 O   0  5  0  0  0  0  0  0  0  0  0  0
  1  2  1  0  0  0  0
  1 29  1  0  0  0  0
  1 30  1  0  0  0  0
  1 31  1  0  0  0  0
  2  3  1  0  0  0  0
  2 32  1  0  0  0  0
  2 33  1  0  0  0  0
  3  4  1  0  0  0  0
  4  9  2  0  0  0  0
  4  5  1  0  0  0  0
  5  6  2  0  0  0  0
  5 34  1  0  0  0  0
  6  7  1  0  0  0  0
  6 12  1  0  0  0  0
  7  8  2  0  0  0  0
  7 35  1  0  0  0  0
  8  9  1  0  0  0  0
  8 36  1  0  0  0  0
  9 10  1  0  0  0  0
 10 11  1  0  0  0  0
 11 37  1  0  0  0  0
 11 38  1  0  0  0  0
 11 39  1  0  0  0  0
 12 20  1  0  0  0  0
 12 13  2  0  0  0  0
 13 14  1  0  0  0  0
 13 26  1  0  0  0  0
 14 19  2  0  0  0  0
 14 15  1  0  0  0  0
 15 16  2  0  0  0  0
 15 40  1  0  0  0  0
 16 17  1  0  0  0  0
 16 22  1  0  0  0  0
 17 18  2  0  0  0  0
 17 41  1  0  0  0  0
 18 19  1  0  0  0  0
 18 42  1  0  0  0  0
 19 20  1  0  0  0  0
 20 21  1  0  0  0  0
 22 23  1  0  0  0  0
 22 24  1  0  0  0  0
 22 25  1  0  0  0  0
 23 43  1  0  0  0  0
 23 44  1  0  0  0  0
 23 45  1  0  0  0  0
 24 46  1  0  0  0  0
 24 47  1  0  0  0  0
 24 48  1  0  0  0  0
 25 49  1  0  0  0  0
 25 50  1  0  0  0  0
 25 51  1  0  0  0  0
 26 27  1  0  0  0  0
 26 52  1  0  0  0  0
 26 53  1  0  0  0  0
 27 28  2  0  0  0  0
 27 54  1  0  0  0  0
M  CHG  1  54  -1
M  END
$$$$
ZINC03748583
  -OEChem-08230709463D

 54 56  0     0  0  0  0  0  0999 V2000
   -2.5726    4.0380    0.0361 C   0  0  0  0  0  0  0  0  0  0  0  0
   -1.1503    3.4740    0.0264 C   0  0  0  0  0  0  0  0  0  0  0  0
   -1.2042    2.0460    0.0189 O   0  0  0  0  0  0  0  0  0  0  0  0
   -0.0167    1.3835    0.0096 C   0  0  0  0  0  0  0  0  0  0  0  0
    1.1715    2.0948    0.0021 C   0  0  0  0  0  0  0  0  0  0  0  0
    2.3870    1.4148   -0.0126 C   0  0  0  0  0  0  0  0  0  0  0  0
    2.3998    0.0165   -0.0203 C   0  0  0  0  0  0  0  0  0  0  0  0
    1.2055   -0.6842   -0.0131 C   0  0  0  0  0  0  0  0  0  0  0  0
    0.0021   -0.0041    0.0020 C   0  0  0  0  0  0  0  0  0  0  0  0
   -1.2943   -0.7724    0.0107 C   0  0  0  0  0  0  0  0  0  0  0  0
   -0.9977   -2.2733   -0.0002 C   0  0  0  0  0  0  0  0  0  0  0  0
   -2.0883   -0.4186    1.2698 C   0  0  0  0  0  0  0  0  0  0  0  0
   -2.1131   -0.4052   -1.2285 C   0  0  0  0  0  0  0  0  0  0  0  0
    3.5825   -0.6537   -0.0342 O   0  0  0  0  0  0  0  0  0  0  0  0
    3.5192   -2.0813   -0.0409 C   0  0  0  0  0  0  0  0  0  0  0  0
    4.9376   -2.6546   -0.0565 C   0  0  0  0  0  0  0  0  0  0  0  0
    3.6624    2.1707   -0.0202 C   0  0  0  0  0  0  0  0  0  0  0  0
    4.1313    2.9791    0.9641 C   0  0  0  0  0  0  0  0  0  0  0  0
    5.3425    3.5006    0.5988 N   0  0  0  0  0  0  0  0  0  0  0  0
    6.1793    4.3541    1.2661 C   0  0  0  0  0  0  0  0  0  0  0  0
    7.3431    4.7559    0.7133 C   0  0  0  0  0  0  0  0  0  0  0  0
    7.7173    4.3032   -0.5605 C   0  0  0  0  0  0  0  0  0  0  0  0
    6.8939    3.4525   -1.2368 C   0  0  0  0  0  0  0  0  0  0  0  0
    5.6875    3.0467   -0.6454 C   0  0  0  0  0  0  0  0  0  0  0  0
    4.6618    2.1952   -1.0979 C   0  0  0  0  0  0  0  0  0  0  0  0
    4.6045    1.5070   -2.3328 C   0  0  0  0  0  0  0  0  0  0  0  0
    4.0887    2.0353   -3.3006 O   0  0  0  0  0  0  0  0  0  0  0  0
   -2.5315    5.1272    0.0419 H   0  0  0  0  0  0  0  0  0  0  0  0
   -3.1039    3.6991   -0.8532 H   0  0  0  0  0  0  0  0  0  0  0  0
   -3.0955    3.6894    0.9267 H   0  0  0  0  0  0  0  0  0  0  0  0
   -0.6190    3.8129    0.9157 H   0  0  0  0  0  0  0  0  0  0  0  0
   -0.6274    3.8226   -0.8642 H   0  0  0  0  0  0  0  0  0  0  0  0
    1.1557    3.1746    0.0077 H   0  0  0  0  0  0  0  0  0  0  0  0
    1.2141   -1.7642   -0.0190 H   0  0  0  0  0  0  0  0  0  0  0  0
   -0.4144   -2.5349    0.8826 H   0  0  0  0  0  0  0  0  0  0  0  0
   -1.9354   -2.8290    0.0061 H   0  0  0  0  0  0  0  0  0  0  0  0
   -0.4320   -2.5253   -0.8972 H   0  0  0  0  0  0  0  0  0  0  0  0
   -2.2997    0.6506    1.2777 H   0  0  0  0  0  0  0  0  0  0  0  0
   -3.0260   -0.9744    1.2761 H   0  0  0  0  0  0  0  0  0  0  0  0
   -1.5050   -0.6802    2.1527 H   0  0  0  0  0  0  0  0  0  0  0  0
   -1.5474   -0.6573   -2.1255 H   0  0  0  0  0  0  0  0  0  0  0  0
   -3.0508   -0.9610   -1.2222 H   0  0  0  0  0  0  0  0  0  0  0  0
   -2.3244    0.6640   -1.2207 H   0  0  0  0  0  0  0  0  0  0  0  0
    2.9978   -2.4260    0.8521 H   0  0  0  0  0  0  0  0  0  0  0  0
    2.9818   -2.4170   -0.9278 H   0  0  0  0  0  0  0  0  0  0  0  0
    5.4750   -2.3188    0.8305 H   0  0  0  0  0  0  0  0  0  0  0  0
    4.8894   -3.7435   -0.0615 H   0  0  0  0  0  0  0  0  0  0  0  0
    5.4591   -2.3098   -0.9494 H   0  0  0  0  0  0  0  0  0  0  0  0
    3.6255    3.1787    1.8971 H   0  0  0  0  0  0  0  0  0  0  0  0
    5.9043    4.7110    2.2476 H   0  0  0  0  0  0  0  0  0  0  0  0
    7.9903    5.4297    1.2551 H   0  0  0  0  0  0  0  0  0  0  0  0
    8.6494    4.6249   -1.0012 H   0  0  0  0  0  0  0  0  0  0  0  0
    7.1670    3.0949   -2.2185 H   0  0  0  0  0  0  0  0  0  0  0  0
    5.1218    0.2646   -2.4376 O   0  5  0  0  0  0  0  0  0  0  0  0
  1  2  1  0  0  0  0
  1 28  1  0  0  0  0
  1 29  1  0  0  0  0
  1 30  1  0  0  0  0
  2  3  1  0  0  0  0
  2 31  1  0  0  0  0
  2 32  1  0  0  0  0
  3  4  1  0  0  0  0
  4  9  2  0  0  0  0
  4  5  1  0  0  0  0
  5  6  2  0  0  0  0
  5 33  1  0  0  0  0
  6  7  1  0  0  0  0
  6 17  1  0  0  0  0
  7  8  2  0  0  0  0
  7 14  1  0  0  0  0
  8  9  1  0  0  0  0
  8 34  1  0  0  0  0
  9 10  1  0  0  0  0
 10 11  1  0  0  0  0
 10 12  1  0  0  0  0
 10 13  1  0  0  0  0
 11 35  1  0  0  0  0
 11 36  1  0  0  0  0
 11 37  1  0  0  0  0
 12 38  1  0  0  0  0
 12 39  1  0  0  0  0
 12 40  1  0  0  0  0
 13 41  1  0  0  0  0
 13 42  1  0  0  0  0
 13 43  1  0  0  0  0
 14 15  1  0  0  0  0
 15 16  1  0  0  0  0
 15 44  1  0  0  0  0
 15 45  1  0  0  0  0
 16 46  1  0  0  0  0
 16 47  1  0  0  0  0
 16 48  1  0  0  0  0
 17 25  1  0  0  0  0
 17 18  2  0  0  0  0
 18 19  1  0  0  0  0
 18 49  1  0  0  0  0
 19 24  1  0  0  0  0
 19 20  1  0  0  0  0
 20 21  2  0  0  0  0
 20 50  1  0  0  0  0
 21 22  1  0  0  0  0
 21 51  1  0  0  0  0
 22 23  2  0  0  0  0
 22 52  1  0  0  0  0
 23 24  1  0  0  0  0
 23 53  1  0  0  0  0
 24 25  2  0  0  0  0
 25 26  1  0  0  0  0
 26 27  2  0  0  0  0
 26 54  1  0  0  0  0
M  CHG  1  54  -1
M  END
$$$$
ZINC03752643
  -OEChem-08230709463D

 56 59  0     0  0  0  0  0  0999 V2000
   -4.7734   -2.7519   -2.9574 C   0  0  0  0  0  0  0  0  0  0  0  0
   -3.6371   -1.8861   -2.9226 O   0  0  0  0  0  0  0  0  0  0  0  0
   -2.9637   -1.7981   -1.7443 C   0  0  0  0  0  0  0  0  0  0  0  0
   -3.3890   -2.5301   -0.6464 C   0  0  0  0  0  0  0  0  0  0  0  0
   -2.7080   -2.4454    0.5552 C   0  0  0  0  0  0  0  0  0  0  0  0
   -1.6002   -1.6316    0.6715 C   0  0  0  0  0  0  0  0  0  0  0  0
   -1.1618   -0.8885   -0.4257 C   0  0  0  0  0  0  0  0  0  0  0  0
   -1.8533   -0.9694   -1.6388 C   0  0  0  0  0  0  0  0  0  0  0  0
   -1.4377   -0.2450   -2.7112 O   0  0  0  0  0  0  0  0  0  0  0  0
   -0.4915   -0.8641   -3.5850 C   0  0  0  0  0  0  0  0  0  0  0  0
    0.0248   -0.0150   -0.3045 C   0  0  0  0  0  0  0  0  0  0  0  0
    0.0143    1.3375   -0.4076 C   0  0  0  0  0  0  0  0  0  0  0  0
    1.3924    1.7901   -0.2247 C   0  0  0  0  0  0  0  0  0  0  0  0
    2.0049    3.0472   -0.2238 C   0  0  0  0  0  0  0  0  0  0  0  0
    3.3661    3.1423   -0.0168 C   0  0  0  0  0  0  0  0  0  0  0  0
    4.1268    1.9941    0.1895 C   0  0  0  0  0  0  0  0  0  0  0  0
    3.5347    0.7506    0.1899 C   0  0  0  0  0  0  0  0  0  0  0  0
    2.1645    0.6321   -0.0162 C   0  0  0  0  0  0  0  0  0  0  0  0
    1.3086   -0.4492   -0.0698 N   0  0  0  0  0  0  0  0  0  0  0  0
    1.5727   -1.3759    0.0416 H   0  0  0  0  0  0  0  0  0  0  0  0
    3.9672    4.3622   -0.0149 O   0  0  0  0  0  0  0  0  0  0  0  0
    3.1152    5.5054   -0.1120 C   0  0  0  0  0  0  0  0  0  0  0  0
    2.8086    5.7893   -1.5838 C   0  0  0  0  0  0  0  0  0  0  0  0
    1.8965    7.0133   -1.6879 C   0  0  0  0  0  0  0  0  0  0  0  0
    2.5966    8.2251   -1.0697 C   0  0  0  0  0  0  0  0  0  0  0  0
    2.9032    7.9412    0.4021 C   0  0  0  0  0  0  0  0  0  0  0  0
    3.8154    6.7172    0.5061 C   0  0  0  0  0  0  0  0  0  0  0  0
   -1.1883    2.2077   -0.6678 C   0  0  0  0  0  0  0  0  0  0  0  0
   -1.8159    2.6026    0.6441 C   0  0  0  0  0  0  0  0  0  0  0  0
   -1.3359    2.2171    1.6837 O   0  0  0  0  0  0  0  0  0  0  0  0
   -4.4622   -3.7695   -2.7212 H   0  0  0  0  0  0  0  0  0  0  0  0
   -5.5077   -2.4173   -2.2246 H   0  0  0  0  0  0  0  0  0  0  0  0
   -5.2171   -2.7294   -3.9527 H   0  0  0  0  0  0  0  0  0  0  0  0
   -4.2554   -3.1695   -0.7294 H   0  0  0  0  0  0  0  0  0  0  0  0
   -3.0455   -3.0188    1.4059 H   0  0  0  0  0  0  0  0  0  0  0  0
   -1.0723   -1.5692    1.6116 H   0  0  0  0  0  0  0  0  0  0  0  0
   -0.9208   -1.7773   -3.9971 H   0  0  0  0  0  0  0  0  0  0  0  0
   -0.2450   -0.1799   -4.3970 H   0  0  0  0  0  0  0  0  0  0  0  0
    0.4130   -1.1072   -3.0275 H   0  0  0  0  0  0  0  0  0  0  0  0
    1.4161    3.9384   -0.3833 H   0  0  0  0  0  0  0  0  0  0  0  0
    5.1913    2.0796    0.3505 H   0  0  0  0  0  0  0  0  0  0  0  0
    4.1347   -0.1329    0.3506 H   0  0  0  0  0  0  0  0  0  0  0  0
    2.1850    5.3117    0.4221 H   0  0  0  0  0  0  0  0  0  0  0  0
    3.7389    5.9830   -2.1179 H   0  0  0  0  0  0  0  0  0  0  0  0
    2.3098    4.9260   -2.0242 H   0  0  0  0  0  0  0  0  0  0  0  0
    0.9662    6.8196   -1.1538 H   0  0  0  0  0  0  0  0  0  0  0  0
    1.6781    7.2156   -2.7364 H   0  0  0  0  0  0  0  0  0  0  0  0
    1.9468    9.0971   -1.1438 H   0  0  0  0  0  0  0  0  0  0  0  0
    3.5269    8.4188   -1.6038 H   0  0  0  0  0  0  0  0  0  0  0  0
    1.9730    7.7475    0.9362 H   0  0  0  0  0  0  0  0  0  0  0  0
    3.4020    8.8045    0.8425 H   0  0  0  0  0  0  0  0  0  0  0  0
    4.0338    6.5149    1.5547 H   0  0  0  0  0  0  0  0  0  0  0  0
    4.7456    6.9109   -0.0280 H   0  0  0  0  0  0  0  0  0  0  0  0
   -0.8790    3.1032   -1.2068 H   0  0  0  0  0  0  0  0  0  0  0  0
   -1.9134    1.6559   -1.2660 H   0  0  0  0  0  0  0  0  0  0  0  0
   -2.9081    3.3828    0.6577 O   0  5  0  0  0  0  0  0  0  0  0  0
  1  2  1  0  0  0  0
  1 31  1  0  0  0  0
  1 32  1  0  0  0  0
  1 33  1  0  0  0  0
  2  3  1  0  0  0  0
  3  8  2  0  0  0  0
  3  4  1  0  0  0  0
  4  5  2  0  0  0  0
  4 34  1  0  0  0  0
  5  6  1  0  0  0  0
  5 35  1  0  0  0  0
  6  7  2  0  0  0  0
  6 36  1  0  0  0  0
  7  8  1  0  0  0  0
  7 11  1  0  0  0  0
  8  9  1  0  0  0  0
  9 10  1  0  0  0  0
 10 37  1  0  0  0  0
 10 38  1  0  0  0  0
 10 39  1  0  0  0  0
 11 19  1  0  0  0  0
 11 12  2  0  0  0  0
 12 13  1  0  0  0  0
 12 28  1  0  0  0  0
 13 18  2  0  0  0  0
 13 14  1  0  0  0  0
 14 15  2  0  0  0  0
 14 40  1  0  0  0  0
 15 16  1  0  0  0  0
 15 21  1  0  0  0  0
 16 17  2  0  0  0  0
 16 41  1  0  0  0  0
 17 18  1  0  0  0  0
 17 42  1  0  0  0  0
 18 19  1  0  0  0  0
 19 20  1  0  0  0  0
 21 22  1  0  0  0  0
 22 27  1  0  0  0  0
 22 23  1  0  0  0  0
 22 43  1  0  0  0  0
 23 24  1  0  0  0  0
 23 44  1  0  0  0  0
 23 45  1  0  0  0  0
 24 25  1  0  0  0  0
 24 46  1  0  0  0  0
 24 47  1  0  0  0  0
 25 26  1  0  0  0  0
 25 48  1  0  0  0  0
 25 49  1  0  0  0  0
 26 27  1  0  0  0  0
 26 50  1  0  0  0  0
 26 51  1  0  0  0  0
 27 52  1  0  0  0  0
 27 53  1  0  0  0  0
 28 29  1  0  0  0  0
 28 54  1  0  0  0  0
 28 55  1  0  0  0  0
 29 30  2  0  0  0  0
 29 56  1  0  0  0  0
M  CHG  1  56  -1
M  END
$$$$
ZINC03752644
  -OEChem-08230709463D

 56 59  0     0  0  0  0  0  0999 V2000
   -4.2270    8.7127    0.4661 C   0  0  0  0  0  0  0  0  0  0  0  0
   -3.5438    8.2737   -0.7097 O   0  0  0  0  0  0  0  0  0  0  0  0
   -2.8125    7.1331   -0.6086 C   0  0  0  0  0  0  0  0  0  0  0  0
   -2.7560    6.4520    0.6012 C   0  0  0  0  0  0  0  0  0  0  0  0
   -2.0158    5.2945    0.7112 C   0  0  0  0  0  0  0  0  0  0  0  0
   -1.3205    4.8038   -0.3949 C   0  0  0  0  0  0  0  0  0  0  0  0
   -1.3737    5.4946   -1.6121 C   0  0  0  0  0  0  0  0  0  0  0  0
   -2.1247    6.6529   -1.7133 C   0  0  0  0  0  0  0  0  0  0  0  0
   -0.6951    5.0262   -2.6914 O   0  0  0  0  0  0  0  0  0  0  0  0
   -0.7957    5.7829   -3.8994 C   0  0  0  0  0  0  0  0  0  0  0  0
   -0.5258    3.5631   -0.2806 C   0  0  0  0  0  0  0  0  0  0  0  0
    0.8231    3.4836   -0.4040 C   0  0  0  0  0  0  0  0  0  0  0  0
    1.1864    2.0793   -0.2207 C   0  0  0  0  0  0  0  0  0  0  0  0
    2.4002    1.3851   -0.2355 C   0  0  0  0  0  0  0  0  0  0  0  0
    2.4084    0.0214   -0.0225 C   0  0  0  0  0  0  0  0  0  0  0  0
    1.2157   -0.6609    0.2045 C   0  0  0  0  0  0  0  0  0  0  0  0
    0.0140    0.0123    0.2204 C   0  0  0  0  0  0  0  0  0  0  0  0
   -0.0168    1.3863    0.0090 C   0  0  0  0  0  0  0  0  0  0  0  0
   -1.0407    2.3110   -0.0375 N   0  0  0  0  0  0  0  0  0  0  0  0
   -1.9814    2.1085    0.0842 H   0  0  0  0  0  0  0  0  0  0  0  0
    3.5858   -0.6589   -0.0349 O   0  0  0  0  0  0  0  0  0  0  0  0
    4.7811    0.1153   -0.1531 C   0  0  0  0  0  0  0  0  0  0  0  0
    5.0631    0.3957   -1.6306 C   0  0  0  0  0  0  0  0  0  0  0  0
    6.3428    1.2246   -1.7572 C   0  0  0  0  0  0  0  0  0  0  0  0
    7.5148    0.4488   -1.1526 C   0  0  0  0  0  0  0  0  0  0  0  0
    7.2329    0.1684    0.3248 C   0  0  0  0  0  0  0  0  0  0  0  0
    5.9531   -0.6605    0.4514 C   0  0  0  0  0  0  0  0  0  0  0  0
    1.7674    4.6258   -0.6772 C   0  0  0  0  0  0  0  0  0  0  0  0
    1.9418    4.7884   -2.1653 C   0  0  0  0  0  0  0  0  0  0  0  0
    1.3591    4.0523   -2.9258 O   0  0  0  0  0  0  0  0  0  0  0  0
   -3.5027    8.8985    1.2592 H   0  0  0  0  0  0  0  0  0  0  0  0
   -4.7711    9.6317    0.2484 H   0  0  0  0  0  0  0  0  0  0  0  0
   -4.9283    7.9427    0.7876 H   0  0  0  0  0  0  0  0  0  0  0  0
   -3.2934    6.8309    1.4579 H   0  0  0  0  0  0  0  0  0  0  0  0
   -1.9742    4.7672    1.6529 H   0  0  0  0  0  0  0  0  0  0  0  0
   -2.1714    7.1856   -2.6517 H   0  0  0  0  0  0  0  0  0  0  0  0
   -1.8393    5.8350   -4.2097 H   0  0  0  0  0  0  0  0  0  0  0  0
   -0.4164    6.7906   -3.7296 H   0  0  0  0  0  0  0  0  0  0  0  0
   -0.2081    5.3003   -4.6804 H   0  0  0  0  0  0  0  0  0  0  0  0
    3.3258    1.9130   -0.4114 H   0  0  0  0  0  0  0  0  0  0  0  0
    1.2330   -1.7281    0.3693 H   0  0  0  0  0  0  0  0  0  0  0  0
   -0.9046   -0.5272    0.3974 H   0  0  0  0  0  0  0  0  0  0  0  0
    4.6570    1.0587    0.3785 H   0  0  0  0  0  0  0  0  0  0  0  0
    5.1871   -0.5478   -2.1622 H   0  0  0  0  0  0  0  0  0  0  0  0
    4.2281    0.9484   -2.0613 H   0  0  0  0  0  0  0  0  0  0  0  0
    6.2187    2.1680   -1.2256 H   0  0  0  0  0  0  0  0  0  0  0  0
    6.5437    1.4243   -2.8097 H   0  0  0  0  0  0  0  0  0  0  0  0
    8.4265    1.0393   -1.2428 H   0  0  0  0  0  0  0  0  0  0  0  0
    7.6389   -0.4946   -1.6842 H   0  0  0  0  0  0  0  0  0  0  0  0
    7.1088    1.1119    0.8564 H   0  0  0  0  0  0  0  0  0  0  0  0
    8.0678   -0.3842    0.7555 H   0  0  0  0  0  0  0  0  0  0  0  0
    5.7523   -0.8602    1.5040 H   0  0  0  0  0  0  0  0  0  0  0  0
    6.0772   -1.6039   -0.0802 H   0  0  0  0  0  0  0  0  0  0  0  0
    1.3578    5.5443   -0.2569 H   0  0  0  0  0  0  0  0  0  0  0  0
    2.7338    4.4158   -0.2189 H   0  0  0  0  0  0  0  0  0  0  0  0
    2.7445    5.7510   -2.6457 O   0  5  0  0  0  0  0  0  0  0  0  0
  1  2  1  0  0  0  0
  1 31  1  0  0  0  0
  1 32  1  0  0  0  0
  1 33  1  0  0  0  0
  2  3  1  0  0  0  0
  3  8  2  0  0  0  0
  3  4  1  0  0  0  0
  4  5  2  0  0  0  0
  4 34  1  0  0  0  0
  5  6  1  0  0  0  0
  5 35  1  0  0  0  0
  6  7  2  0  0  0  0
  6 11  1  0  0  0  0
  7  8  1  0  0  0  0
  7  9  1  0  0  0  0
  8 36  1  0  0  0  0
  9 10  1  0  0  0  0
 10 37  1  0  0  0  0
 10 38  1  0  0  0  0
 10 39  1  0  0  0  0
 11 19  1  0  0  0  0
 11 12  2  0  0  0  0
 12 13  1  0  0  0  0
 12 28  1  0  0  0  0
 13 18  2  0  0  0  0
 13 14  1  0  0  0  0
 14 15  2  0  0  0  0
 14 40  1  0  0  0  0
 15 16  1  0  0  0  0
 15 21  1  0  0  0  0
 16 17  2  0  0  0  0
 16 41  1  0  0  0  0
 17 18  1  0  0  0  0
 17 42  1  0  0  0  0
 18 19  1  0  0  0  0
 19 20  1  0  0  0  0
 21 22  1  0  0  0  0
 22 27  1  0  0  0  0
 22 23  1  0  0  0  0
 22 43  1  0  0  0  0
 23 24  1  0  0  0  0
 23 44  1  0  0  0  0
 23 45  1  0  0  0  0
 24 25  1  0  0  0  0
 24 46  1  0  0  0  0
 24 47  1  0  0  0  0
 25 26  1  0  0  0  0
 25 48  1  0  0  0  0
 25 49  1  0  0  0  0
 26 27  1  0  0  0  0
 26 50  1  0  0  0  0
 26 51  1  0  0  0  0
 27 52  1  0  0  0  0
 27 53  1  0  0  0  0
 28 29  1  0  0  0  0
 28 54  1  0  0  0  0
 28 55  1  0  0  0  0
 29 30  2  0  0  0  0
 29 56  1  0  0  0  0
M  CHG  1  56  -1
M  END
$$$$
ZINC03752645
  -OEChem-08230709463D

 56 59  0     0  0  0  0  0  0999 V2000
    0.2116    1.7062   -0.3414 C   0  0  0  0  0  0  0  0  0  0  0  0
   -0.5350    2.0635    0.8235 O   0  0  0  0  0  0  0  0  0  0  0  0
   -0.5586    3.3804    1.1618 C   0  0  0  0  0  0  0  0  0  0  0  0
    0.1290    4.3065    0.3889 C   0  0  0  0  0  0  0  0  0  0  0  0
    0.1055    5.6474    0.7225 C   0  0  0  0  0  0  0  0  0  0  0  0
   -0.5958    6.0744    1.8380 C   0  0  0  0  0  0  0  0  0  0  0  0
   -1.2863    5.1451    2.6246 C   0  0  0  0  0  0  0  0  0  0  0  0
   -1.2631    3.7937    2.2789 C   0  0  0  0  0  0  0  0  0  0  0  0
   -2.0373    5.5938    3.8162 C   0  0  0  0  0  0  0  0  0  0  0  0
   -3.1252    6.4040    3.7960 C   0  0  0  0  0  0  0  0  0  0  0  0
   -3.5454    6.5888    5.1840 C   0  0  0  0  0  0  0  0  0  0  0  0
   -4.5818    7.3030    5.7933 C   0  0  0  0  0  0  0  0  0  0  0  0
   -4.7139    7.2746    7.1669 C   0  0  0  0  0  0  0  0  0  0  0  0
   -3.8210    6.5398    7.9430 C   0  0  0  0  0  0  0  0  0  0  0  0
   -2.7961    5.8329    7.3541 C   0  0  0  0  0  0  0  0  0  0  0  0
   -2.6450    5.8475    5.9717 C   0  0  0  0  0  0  0  0  0  0  0  0
   -1.7438    5.2490    5.1149 N   0  0  0  0  0  0  0  0  0  0  0  0
   -1.0120    4.6737    5.3878 H   0  0  0  0  0  0  0  0  0  0  0  0
   -5.7199    7.9672    7.7648 O   0  0  0  0  0  0  0  0  0  0  0  0
   -6.6707    8.6009    6.9067 C   0  0  0  0  0  0  0  0  0  0  0  0
   -6.1394    9.9709    6.4805 C   0  0  0  0  0  0  0  0  0  0  0  0
   -7.1574   10.6494    5.5617 C   0  0  0  0  0  0  0  0  0  0  0  0
   -8.4809   10.8255    6.3089 C   0  0  0  0  0  0  0  0  0  0  0  0
   -9.0122    9.4555    6.7350 C   0  0  0  0  0  0  0  0  0  0  0  0
   -7.9942    8.7770    7.6539 C   0  0  0  0  0  0  0  0  0  0  0  0
   -3.7763    7.0008    2.5750 C   0  0  0  0  0  0  0  0  0  0  0  0
   -4.8384    6.0624    2.0627 C   0  0  0  0  0  0  0  0  0  0  0  0
   -5.0454    5.0164    2.6308 O   0  0  0  0  0  0  0  0  0  0  0  0
   -0.6130    7.3926    2.1682 O   0  0  0  0  0  0  0  0  0  0  0  0
    0.1140    8.2835    1.3198 C   0  0  0  0  0  0  0  0  0  0  0  0
    0.1478    0.6293   -0.4977 H   0  0  0  0  0  0  0  0  0  0  0  0
    1.2546    1.9926   -0.2066 H   0  0  0  0  0  0  0  0  0  0  0  0
   -0.1983    2.2240   -1.2086 H   0  0  0  0  0  0  0  0  0  0  0  0
    0.6810    3.9781   -0.4793 H   0  0  0  0  0  0  0  0  0  0  0  0
    0.6388    6.3633    0.1147 H   0  0  0  0  0  0  0  0  0  0  0  0
   -1.7942    3.0718    2.8815 H   0  0  0  0  0  0  0  0  0  0  0  0
   -5.2747    7.8735    5.1927 H   0  0  0  0  0  0  0  0  0  0  0  0
   -3.9330    6.5245    9.0171 H   0  0  0  0  0  0  0  0  0  0  0  0
   -2.1096    5.2666    7.9661 H   0  0  0  0  0  0  0  0  0  0  0  0
   -6.8316    7.9828    6.0234 H   0  0  0  0  0  0  0  0  0  0  0  0
   -5.9786   10.5890    7.3638 H   0  0  0  0  0  0  0  0  0  0  0  0
   -5.1966    9.8454    5.9482 H   0  0  0  0  0  0  0  0  0  0  0  0
   -7.3183   10.0313    4.6784 H   0  0  0  0  0  0  0  0  0  0  0  0
   -6.7789   11.6255    5.2581 H   0  0  0  0  0  0  0  0  0  0  0  0
   -9.2062   11.3089    5.6543 H   0  0  0  0  0  0  0  0  0  0  0  0
   -8.3201   11.4437    7.1921 H   0  0  0  0  0  0  0  0  0  0  0  0
   -9.1731    8.8374    5.8518 H   0  0  0  0  0  0  0  0  0  0  0  0
   -9.9551    9.5810    7.2673 H   0  0  0  0  0  0  0  0  0  0  0  0
   -8.3727    7.8010    7.9575 H   0  0  0  0  0  0  0  0  0  0  0  0
   -7.8334    9.3951    8.5371 H   0  0  0  0  0  0  0  0  0  0  0  0
   -4.2310    7.9564    2.8361 H   0  0  0  0  0  0  0  0  0  0  0  0
   -3.0243    7.1556    1.8012 H   0  0  0  0  0  0  0  0  0  0  0  0
   -0.2872    8.2299    0.3077 H   0  0  0  0  0  0  0  0  0  0  0  0
    0.0178    9.3023    1.6952 H   0  0  0  0  0  0  0  0  0  0  0  0
    1.1658    7.9980    1.3093 H   0  0  0  0  0  0  0  0  0  0  0  0
   -5.5544    6.3887    0.9752 O   0  5  0  0  0  0  0  0  0  0  0  0
  1  2  1  0  0  0  0
  1 31  1  0  0  0  0
  1 32  1  0  0  0  0
  1 33  1  0  0  0  0
  2  3  1  0  0  0  0
  3  8  2  0  0  0  0
  3  4  1  0  0  0  0
  4  5  2  0  0  0  0
  4 34  1  0  0  0  0
  5  6  1  0  0  0  0
  5 35  1  0  0  0  0
  6  7  2  0  0  0  0
  6 29  1  0  0  0  0
  7  8  1  0  0  0  0
  7  9  1  0  0  0  0
  8 36  1  0  0  0  0
  9 17  1  0  0  0  0
  9 10  2  0  0  0  0
 10 11  1  0  0  0  0
 10 26  1  0  0  0  0
 11 16  2  0  0  0  0
 11 12  1  0  0  0  0
 12 13  2  0  0  0  0
 12 37  1  0  0  0  0
 13 14  1  0  0  0  0
 13 19  1  0  0  0  0
 14 15  2  0  0  0  0
 14 38  1  0  0  0  0
 15 16  1  0  0  0  0
 15 39  1  0  0  0  0
 16 17  1  0  0  0  0
 17 18  1  0  0  0  0
 19 20  1  0  0  0  0
 20 25  1  0  0  0  0
 20 21  1  0  0  0  0
 20 40  1  0  0  0  0
 21 22  1  0  0  0  0
 21 41  1  0  0  0  0
 21 42  1  0  0  0  0
 22 23  1  0  0  0  0
 22 43  1  0  0  0  0
 22 44  1  0  0  0  0
 23 24  1  0  0  0  0
 23 45  1  0  0  0  0
 23 46  1  0  0  0  0
 24 25  1  0  0  0  0
 24 47  1  0  0  0  0
 24 48  1  0  0  0  0
 25 49  1  0  0  0  0
 25 50  1  0  0  0  0
 26 27  1  0  0  0  0
 26 51  1  0  0  0  0
 26 52  1  0  0  0  0
 27 28  2  0  0  0  0
 27 56  1  0  0  0  0
 29 30  1  0  0  0  0
 30 53  1  0  0  0  0
 30 54  1  0  0  0  0
 30 55  1  0  0  0  0
M  CHG  1  56  -1
M  END
$$$$
ZINC03752646
  -OEChem-08230709463D

 56 59  0     0  0  0  0  0  0999 V2000
    3.2179    3.6908   -0.7681 C   0  0  0  0  0  0  0  0  0  0  0  0
    1.9858    4.3670   -0.5099 O   0  0  0  0  0  0  0  0  0  0  0  0
    0.8664    3.5998   -0.4264 C   0  0  0  0  0  0  0  0  0  0  0  0
    0.9556    2.2254   -0.5901 C   0  0  0  0  0  0  0  0  0  0  0  0
   -0.1773    1.4428   -0.5063 C   0  0  0  0  0  0  0  0  0  0  0  0
   -1.4176    2.0343   -0.2616 C   0  0  0  0  0  0  0  0  0  0  0  0
   -1.5069    3.4167   -0.0920 C   0  0  0  0  0  0  0  0  0  0  0  0
   -0.3676    4.1957   -0.1772 C   0  0  0  0  0  0  0  0  0  0  0  0
   -0.4518    5.5436   -0.0171 O   0  0  0  0  0  0  0  0  0  0  0  0
   -1.7490    6.0871    0.2358 C   0  0  0  0  0  0  0  0  0  0  0  0
   -2.6336    1.1974   -0.1770 C   0  0  0  0  0  0  0  0  0  0  0  0
   -2.9599    0.2024   -1.0392 C   0  0  0  0  0  0  0  0  0  0  0  0
   -4.2315   -0.3571   -0.5837 C   0  0  0  0  0  0  0  0  0  0  0  0
   -5.0581   -1.3841   -1.0500 C   0  0  0  0  0  0  0  0  0  0  0  0
   -6.2304   -1.6727   -0.3812 C   0  0  0  0  0  0  0  0  0  0  0  0
   -6.5899   -0.9458    0.7511 C   0  0  0  0  0  0  0  0  0  0  0  0
   -5.7842    0.0684    1.2191 C   0  0  0  0  0  0  0  0  0  0  0  0
   -4.5984    0.3755    0.5606 C   0  0  0  0  0  0  0  0  0  0  0  0
   -3.6104    1.3125    0.7845 N   0  0  0  0  0  0  0  0  0  0  0  0
   -3.6054    1.9553    1.5109 H   0  0  0  0  0  0  0  0  0  0  0  0
   -7.0379   -2.6706   -0.8299 O   0  0  0  0  0  0  0  0  0  0  0  0
   -6.5543   -3.4549   -1.9222 C   0  0  0  0  0  0  0  0  0  0  0  0
   -6.8866   -2.7530   -3.2404 C   0  0  0  0  0  0  0  0  0  0  0  0
   -6.3689   -3.5927   -4.4099 C   0  0  0  0  0  0  0  0  0  0  0  0
   -7.0350   -4.9698   -4.3833 C   0  0  0  0  0  0  0  0  0  0  0  0
   -6.7027   -5.6717   -3.0650 C   0  0  0  0  0  0  0  0  0  0  0  0
   -7.2205   -4.8320   -1.8955 C   0  0  0  0  0  0  0  0  0  0  0  0
   -2.1621   -0.2433   -2.2375 C   0  0  0  0  0  0  0  0  0  0  0  0
   -1.1973   -1.3248   -1.8246 C   0  0  0  0  0  0  0  0  0  0  0  0
   -1.1612   -1.6957   -0.6753 O   0  0  0  0  0  0  0  0  0  0  0  0
    4.0293    4.4174   -0.8100 H   0  0  0  0  0  0  0  0  0  0  0  0
    3.4130    2.9739    0.0294 H   0  0  0  0  0  0  0  0  0  0  0  0
    3.1513    3.1653   -1.7208 H   0  0  0  0  0  0  0  0  0  0  0  0
    1.9140    1.7669   -0.7839 H   0  0  0  0  0  0  0  0  0  0  0  0
   -0.1052    0.3729   -0.6344 H   0  0  0  0  0  0  0  0  0  0  0  0
   -2.4643    3.8776    0.1012 H   0  0  0  0  0  0  0  0  0  0  0  0
   -2.1503    5.6575    1.1537 H   0  0  0  0  0  0  0  0  0  0  0  0
   -1.6750    7.1692    0.3431 H   0  0  0  0  0  0  0  0  0  0  0  0
   -2.4113    5.8490   -0.5966 H   0  0  0  0  0  0  0  0  0  0  0  0
   -4.7805   -1.9485   -1.9279 H   0  0  0  0  0  0  0  0  0  0  0  0
   -7.5095   -1.1795    1.2669 H   0  0  0  0  0  0  0  0  0  0  0  0
   -6.0733    0.6253    2.0982 H   0  0  0  0  0  0  0  0  0  0  0  0
   -5.4742   -3.5721   -1.8352 H   0  0  0  0  0  0  0  0  0  0  0  0
   -7.9668   -2.6358   -3.3275 H   0  0  0  0  0  0  0  0  0  0  0  0
   -6.4121   -1.7719   -3.2594 H   0  0  0  0  0  0  0  0  0  0  0  0
   -5.2887   -3.7099   -4.3229 H   0  0  0  0  0  0  0  0  0  0  0  0
   -6.6056   -3.0927   -5.3491 H   0  0  0  0  0  0  0  0  0  0  0  0
   -6.6662   -5.5680   -5.2165 H   0  0  0  0  0  0  0  0  0  0  0  0
   -8.1152   -4.8527   -4.4703 H   0  0  0  0  0  0  0  0  0  0  0  0
   -5.6226   -5.7889   -2.9780 H   0  0  0  0  0  0  0  0  0  0  0  0
   -7.1773   -6.6528   -3.0461 H   0  0  0  0  0  0  0  0  0  0  0  0
   -6.9838   -5.3320   -0.9564 H   0  0  0  0  0  0  0  0  0  0  0  0
   -8.3007   -4.7148   -1.9826 H   0  0  0  0  0  0  0  0  0  0  0  0
   -2.8376   -0.6308   -3.0001 H   0  0  0  0  0  0  0  0  0  0  0  0
   -1.6073    0.6041   -2.6402 H   0  0  0  0  0  0  0  0  0  0  0  0
   -0.3780   -1.8762   -2.7338 O   0  5  0  0  0  0  0  0  0  0  0  0
  1  2  1  0  0  0  0
  1 31  1  0  0  0  0
  1 32  1  0  0  0  0
  1 33  1  0  0  0  0
  2  3  1  0  0  0  0
  3  8  2  0  0  0  0
  3  4  1  0  0  0  0
  4  5  2  0  0  0  0
  4 34  1  0  0  0  0
  5  6  1  0  0  0  0
  5 35  1  0  0  0  0
  6  7  2  0  0  0  0
  6 11  1  0  0  0  0
  7  8  1  0  0  0  0
  7 36  1  0  0  0  0
  8  9  1  0  0  0  0
  9 10  1  0  0  0  0
 10 37  1  0  0  0  0
 10 38  1  0  0  0  0
 10 39  1  0  0  0  0
 11 19  1  0  0  0  0
 11 12  2  0  0  0  0
 12 13  1  0  0  0  0
 12 28  1  0  0  0  0
 13 18  2  0  0  0  0
 13 14  1  0  0  0  0
 14 15  2  0  0  0  0
 14 40  1  0  0  0  0
 15 16  1  0  0  0  0
 15 21  1  0  0  0  0
 16 17  2  0  0  0  0
 16 41  1  0  0  0  0
 17 18  1  0  0  0  0
 17 42  1  0  0  0  0
 18 19  1  0  0  0  0
 19 20  1  0  0  0  0
 21 22  1  0  0  0  0
 22 27  1  0  0  0  0
 22 23  1  0  0  0  0
 22 43  1  0  0  0  0
 23 24  1  0  0  0  0
 23 44  1  0  0  0  0
 23 45  1  0  0  0  0
 24 25  1  0  0  0  0
 24 46  1  0  0  0  0
 24 47  1  0  0  0  0
 25 26  1  0  0  0  0
 25 48  1  0  0  0  0
 25 49  1  0  0  0  0
 26 27  1  0  0  0  0
 26 50  1  0  0  0  0
 26 51  1  0  0  0  0
 27 52  1  0  0  0  0
 27 53  1  0  0  0  0
 28 29  1  0  0  0  0
 28 54  1  0  0  0  0
 28 55  1  0  0  0  0
 29 30  2  0  0  0  0
 29 56  1  0  0  0  0
M  CHG  1  56  -1
M  END
$$$$
ZINC03752648
  -OEChem-08230709463D

 55 58  0     0  0  0  0  0  0999 V2000
   -1.0242    7.8184   -0.9212 C   0  0  0  0  0  0  0  0  0  0  0  0
   -1.3192    6.3245   -0.7727 C   0  0  0  0  0  0  0  0  0  0  0  0
   -0.0959    5.6158   -0.5642 O   0  0  0  0  0  0  0  0  0  0  0  0
   -0.1818    4.2688   -0.4121 C   0  0  0  0  0  0  0  0  0  0  0  0
   -1.4156    3.6406   -0.4616 C   0  0  0  0  0  0  0  0  0  0  0  0
   -1.5013    2.2693   -0.3119 C   0  0  0  0  0  0  0  0  0  0  0  0
   -0.3594    1.5161   -0.1005 C   0  0  0  0  0  0  0  0  0  0  0  0
    0.8765    2.1269   -0.0487 C   0  0  0  0  0  0  0  0  0  0  0  0
    0.9761    3.5098   -0.2042 C   0  0  0  0  0  0  0  0  0  0  0  0
    2.2974    4.1703   -0.1492 C   0  0  0  0  0  0  0  0  0  0  0  0
    2.6913    5.0540    0.8016 C   0  0  0  0  0  0  0  0  0  0  0  0
    4.0586    5.4537    0.4725 C   0  0  0  0  0  0  0  0  0  0  0  0
    4.9811    6.3217    1.0651 C   0  0  0  0  0  0  0  0  0  0  0  0
    6.2265    6.4867    0.4936 C   0  0  0  0  0  0  0  0  0  0  0  0
    6.5644    5.7931   -0.6659 C   0  0  0  0  0  0  0  0  0  0  0  0
    5.6642    4.9353   -1.2582 C   0  0  0  0  0  0  0  0  0  0  0  0
    4.4037    4.7546   -0.6991 C   0  0  0  0  0  0  0  0  0  0  0  0
    3.3181    3.9786   -1.0510 N   0  0  0  0  0  0  0  0  0  0  0  0
    3.2797    3.3888   -1.8202 H   0  0  0  0  0  0  0  0  0  0  0  0
    7.1274    7.3301    1.0650 O   0  0  0  0  0  0  0  0  0  0  0  0
    6.7634    7.9175    2.3158 C   0  0  0  0  0  0  0  0  0  0  0  0
    5.9246    9.1722    2.0651 C   0  0  0  0  0  0  0  0  0  0  0  0
    5.5349    9.8012    3.4043 C   0  0  0  0  0  0  0  0  0  0  0  0
    6.7999   10.1795    4.1773 C   0  0  0  0  0  0  0  0  0  0  0  0
    7.6387    8.9247    4.4281 C   0  0  0  0  0  0  0  0  0  0  0  0
    8.0284    8.2958    3.0889 C   0  0  0  0  0  0  0  0  0  0  0  0
    1.8747    5.5330    1.9741 C   0  0  0  0  0  0  0  0  0  0  0  0
    2.1045    4.6217    3.1522 C   0  0  0  0  0  0  0  0  0  0  0  0
    2.8546    3.6800    3.0502 O   0  0  0  0  0  0  0  0  0  0  0  0
   -1.9573    8.3589   -1.0803 H   0  0  0  0  0  0  0  0  0  0  0  0
   -0.5416    8.1853   -0.0153 H   0  0  0  0  0  0  0  0  0  0  0  0
   -0.3635    7.9753   -1.7739 H   0  0  0  0  0  0  0  0  0  0  0  0
   -1.8017    5.9576   -1.6786 H   0  0  0  0  0  0  0  0  0  0  0  0
   -1.9798    6.1675    0.0799 H   0  0  0  0  0  0  0  0  0  0  0  0
   -2.3111    4.2227   -0.6218 H   0  0  0  0  0  0  0  0  0  0  0  0
   -2.4648    1.7833   -0.3560 H   0  0  0  0  0  0  0  0  0  0  0  0
   -0.4358    0.4456    0.0200 H   0  0  0  0  0  0  0  0  0  0  0  0
    1.7657    1.5353    0.1116 H   0  0  0  0  0  0  0  0  0  0  0  0
    4.7203    6.8602    1.9641 H   0  0  0  0  0  0  0  0  0  0  0  0
    7.5416    5.9294   -1.1051 H   0  0  0  0  0  0  0  0  0  0  0  0
    5.9374    4.4025   -2.1570 H   0  0  0  0  0  0  0  0  0  0  0  0
    6.1822    7.2022    2.8977 H   0  0  0  0  0  0  0  0  0  0  0  0
    6.5058    9.8875    1.4831 H   0  0  0  0  0  0  0  0  0  0  0  0
    5.0234    8.9027    1.5143 H   0  0  0  0  0  0  0  0  0  0  0  0
    4.9537    9.0859    3.9862 H   0  0  0  0  0  0  0  0  0  0  0  0
    4.9373   10.6951    3.2256 H   0  0  0  0  0  0  0  0  0  0  0  0
    6.5222   10.6276    5.1314 H   0  0  0  0  0  0  0  0  0  0  0  0
    7.3811   10.8948    3.5954 H   0  0  0  0  0  0  0  0  0  0  0  0
    7.0575    8.2094    5.0100 H   0  0  0  0  0  0  0  0  0  0  0  0
    8.5399    9.1942    4.9788 H   0  0  0  0  0  0  0  0  0  0  0  0
    8.6260    7.4019    3.2675 H   0  0  0  0  0  0  0  0  0  0  0  0
    8.6096    9.0111    2.5069 H   0  0  0  0  0  0  0  0  0  0  0  0
    2.1748    6.5477    2.2356 H   0  0  0  0  0  0  0  0  0  0  0  0
    0.8176    5.5238    1.7085 H   0  0  0  0  0  0  0  0  0  0  0  0
    1.4760    4.8563    4.3148 O   0  5  0  0  0  0  0  0  0  0  0  0
  1  2  1  0  0  0  0
  1 30  1  0  0  0  0
  1 31  1  0  0  0  0
  1 32  1  0  0  0  0
  2  3  1  0  0  0  0
  2 33  1  0  0  0  0
  2 34  1  0  0  0  0
  3  4  1  0  0  0  0
  4  9  2  0  0  0  0
  4  5  1  0  0  0  0
  5  6  2  0  0  0  0
  5 35  1  0  0  0  0
  6  7  1  0  0  0  0
  6 36  1  0  0  0  0
  7  8  2  0  0  0  0
  7 37  1  0  0  0  0
  8  9  1  0  0  0  0
  8 38  1  0  0  0  0
  9 10  1  0  0  0  0
 10 18  1  0  0  0  0
 10 11  2  0  0  0  0
 11 12  1  0  0  0  0
 11 27  1  0  0  0  0
 12 17  2  0  0  0  0
 12 13  1  0  0  0  0
 13 14  2  0  0  0  0
 13 39  1  0  0  0  0
 14 15  1  0  0  0  0
 14 20  1  0  0  0  0
 15 16  2  0  0  0  0
 15 40  1  0  0  0  0
 16 17  1  0  0  0  0
 16 41  1  0  0  0  0
 17 18  1  0  0  0  0
 18 19  1  0  0  0  0
 20 21  1  0  0  0  0
 21 26  1  0  0  0  0
 21 22  1  0  0  0  0
 21 42  1  0  0  0  0
 22 23  1  0  0  0  0
 22 43  1  0  0  0  0
 22 44  1  0  0  0  0
 23 24  1  0  0  0  0
 23 45  1  0  0  0  0
 23 46  1  0  0  0  0
 24 25  1  0  0  0  0
 24 47  1  0  0  0  0
 24 48  1  0  0  0  0
 25 26  1  0  0  0  0
 25 49  1  0  0  0  0
 25 50  1  0  0  0  0
 26 51  1  0  0  0  0
 26 52  1  0  0  0  0
 27 28  1  0  0  0  0
 27 53  1  0  0  0  0
 27 54  1  0  0  0  0
 28 29  2  0  0  0  0
 28 55  1  0  0  0  0
M  CHG  1  55  -1
M  END
$$$$
ZINC03752649
  -OEChem-08230709463D

 55 58  0     0  0  0  0  0  0999 V2000
    5.0936   12.2258    1.8129 C   0  0  0  0  0  0  0  0  0  0  0  0
    4.2009   10.9838    1.8517 C   0  0  0  0  0  0  0  0  0  0  0  0
    4.5345   10.1232    0.7608 O   0  0  0  0  0  0  0  0  0  0  0  0
    3.8294    8.9671    0.6493 C   0  0  0  0  0  0  0  0  0  0  0  0
    4.1036    8.0861   -0.3885 C   0  0  0  0  0  0  0  0  0  0  0  0
    3.3904    6.9122   -0.5050 C   0  0  0  0  0  0  0  0  0  0  0  0
    2.3916    6.6095    0.4219 C   0  0  0  0  0  0  0  0  0  0  0  0
    2.1154    7.5002    1.4606 C   0  0  0  0  0  0  0  0  0  0  0  0
    2.8362    8.6698    1.5731 C   0  0  0  0  0  0  0  0  0  0  0  0
    1.6240    5.3516    0.3002 C   0  0  0  0  0  0  0  0  0  0  0  0
    0.2778    5.2416    0.4252 C   0  0  0  0  0  0  0  0  0  0  0  0
   -0.0548    3.8311    0.2323 C   0  0  0  0  0  0  0  0  0  0  0  0
   -1.2530    3.1102    0.2428 C   0  0  0  0  0  0  0  0  0  0  0  0
   -1.2319    1.7491    0.0152 C   0  0  0  0  0  0  0  0  0  0  0  0
   -0.0242    1.0941   -0.2130 C   0  0  0  0  0  0  0  0  0  0  0  0
    1.1621    1.7936   -0.2261 C   0  0  0  0  0  0  0  0  0  0  0  0
    1.1630    3.1666   -0.0045 C   0  0  0  0  0  0  0  0  0  0  0  0
    2.1654    4.1138    0.0424 N   0  0  0  0  0  0  0  0  0  0  0  0
    3.1097    3.9339   -0.0874 H   0  0  0  0  0  0  0  0  0  0  0  0
   -2.3946    1.0438    0.0192 O   0  0  0  0  0  0  0  0  0  0  0  0
   -3.6065    1.7914    0.1400 C   0  0  0  0  0  0  0  0  0  0  0  0
   -3.9009    2.0500    1.6189 C   0  0  0  0  0  0  0  0  0  0  0  0
   -5.1984    2.8504    1.7483 C   0  0  0  0  0  0  0  0  0  0  0  0
   -6.3510    2.0566    1.1300 C   0  0  0  0  0  0  0  0  0  0  0  0
   -6.0566    1.7980   -0.3489 C   0  0  0  0  0  0  0  0  0  0  0  0
   -4.7591    0.9976   -0.4783 C   0  0  0  0  0  0  0  0  0  0  0  0
   -0.6909    6.3607    0.7087 C   0  0  0  0  0  0  0  0  0  0  0  0
   -1.1617    6.9589   -0.5919 C   0  0  0  0  0  0  0  0  0  0  0  0
   -0.7527    6.5215   -1.6412 O   0  0  0  0  0  0  0  0  0  0  0  0
    4.8392   12.8823    2.6450 H   0  0  0  0  0  0  0  0  0  0  0  0
    6.1382   11.9252    1.8935 H   0  0  0  0  0  0  0  0  0  0  0  0
    4.9393   12.7548    0.8724 H   0  0  0  0  0  0  0  0  0  0  0  0
    3.1563   11.2844    1.7711 H   0  0  0  0  0  0  0  0  0  0  0  0
    4.3552   10.4548    2.7922 H   0  0  0  0  0  0  0  0  0  0  0  0
    4.8763    8.3212   -1.1055 H   0  0  0  0  0  0  0  0  0  0  0  0
    3.6040    6.2277   -1.3127 H   0  0  0  0  0  0  0  0  0  0  0  0
    1.3403    7.2716    2.1771 H   0  0  0  0  0  0  0  0  0  0  0  0
    2.6259    9.3575    2.3789 H   0  0  0  0  0  0  0  0  0  0  0  0
   -2.1898    3.6163    0.4237 H   0  0  0  0  0  0  0  0  0  0  0  0
   -0.0184    0.0280   -0.3858 H   0  0  0  0  0  0  0  0  0  0  0  0
    2.0922    1.2757   -0.4083 H   0  0  0  0  0  0  0  0  0  0  0  0
   -3.4999    2.7428   -0.3811 H   0  0  0  0  0  0  0  0  0  0  0  0
   -4.0074    1.0985    2.1400 H   0  0  0  0  0  0  0  0  0  0  0  0
   -3.0797    2.6154    2.0594 H   0  0  0  0  0  0  0  0  0  0  0  0
   -5.0918    3.8018    1.2273 H   0  0  0  0  0  0  0  0  0  0  0  0
   -5.4081    3.0346    2.8020 H   0  0  0  0  0  0  0  0  0  0  0  0
   -7.2754    2.6268    1.2222 H   0  0  0  0  0  0  0  0  0  0  0  0
   -6.4576    1.1051    1.6511 H   0  0  0  0  0  0  0  0  0  0  0  0
   -5.9501    2.7495   -0.8699 H   0  0  0  0  0  0  0  0  0  0  0  0
   -6.8778    1.2325   -0.7894 H   0  0  0  0  0  0  0  0  0  0  0  0
   -4.5494    0.8134   -1.5319 H   0  0  0  0  0  0  0  0  0  0  0  0
   -4.8657    0.0461    0.0427 H   0  0  0  0  0  0  0  0  0  0  0  0
   -1.5463    5.9699    1.2596 H   0  0  0  0  0  0  0  0  0  0  0  0
   -0.1955    7.1282    1.3034 H   0  0  0  0  0  0  0  0  0  0  0  0
   -2.0356    7.9778   -0.5845 O   0  5  0  0  0  0  0  0  0  0  0  0
  1  2  1  0  0  0  0
  1 30  1  0  0  0  0
  1 31  1  0  0  0  0
  1 32  1  0  0  0  0
  2  3  1  0  0  0  0
  2 33  1  0  0  0  0
  2 34  1  0  0  0  0
  3  4  1  0  0  0  0
  4  9  2  0  0  0  0
  4  5  1  0  0  0  0
  5  6  2  0  0  0  0
  5 35  1  0  0  0  0
  6  7  1  0  0  0  0
  6 36  1  0  0  0  0
  7  8  2  0  0  0  0
  7 10  1  0  0  0  0
  8  9  1  0  0  0  0
  8 37  1  0  0  0  0
  9 38  1  0  0  0  0
 10 18  1  0  0  0  0
 10 11  2  0  0  0  0
 11 12  1  0  0  0  0
 11 27  1  0  0  0  0
 12 17  2  0  0  0  0
 12 13  1  0  0  0  0
 13 14  2  0  0  0  0
 13 39  1  0  0  0  0
 14 15  1  0  0  0  0
 14 20  1  0  0  0  0
 15 16  2  0  0  0  0
 15 40  1  0  0  0  0
 16 17  1  0  0  0  0
 16 41  1  0  0  0  0
 17 18  1  0  0  0  0
 18 19  1  0  0  0  0
 20 21  1  0  0  0  0
 21 26  1  0  0  0  0
 21 22  1  0  0  0  0
 21 42  1  0  0  0  0
 22 23  1  0  0  0  0
 22 43  1  0  0  0  0
 22 44  1  0  0  0  0
 23 24  1  0  0  0  0
 23 45  1  0  0  0  0
 23 46  1  0  0  0  0
 24 25  1  0  0  0  0
 24 47  1  0  0  0  0
 24 48  1  0  0  0  0
 25 26  1  0  0  0  0
 25 49  1  0  0  0  0
 25 50  1  0  0  0  0
 26 51  1  0  0  0  0
 26 52  1  0  0  0  0
 27 28  1  0  0  0  0
 27 53  1  0  0  0  0
 27 54  1  0  0  0  0
 28 29  2  0  0  0  0
 28 55  1  0  0  0  0
M  CHG  1  55  -1
M  END
$$$$
ZINC03752650
  -OEChem-08230709463D

 59 62  0     0  0  0  0  0  0999 V2000
    0.4561    1.3001   -0.3484 C   0  0  0  0  0  0  0  0  0  0  0  0
    0.3124   -0.2230   -0.3306 C   0  0  0  0  0  0  0  0  0  0  0  0
    0.7471   -0.7571   -1.5827 O   0  0  0  0  0  0  0  0  0  0  0  0
    0.6839   -2.1072   -1.7334 C   0  0  0  0  0  0  0  0  0  0  0  0
    0.2146   -2.8971   -0.7000 C   0  0  0  0  0  0  0  0  0  0  0  0
    0.1510   -4.2823   -0.8579 C   0  0  0  0  0  0  0  0  0  0  0  0
    0.5615   -4.8645   -2.0581 C   0  0  0  0  0  0  0  0  0  0  0  0
    1.0288   -4.0711   -3.0853 C   0  0  0  0  0  0  0  0  0  0  0  0
    1.0866   -2.6940   -2.9307 C   0  0  0  0  0  0  0  0  0  0  0  0
    1.5426   -1.9157   -3.9479 O   0  0  0  0  0  0  0  0  0  0  0  0
    1.9391   -2.5829   -5.1478 C   0  0  0  0  0  0  0  0  0  0  0  0
   -0.3505   -5.1314    0.2439 C   0  0  0  0  0  0  0  0  0  0  0  0
    0.2223   -6.2869    0.6639 C   0  0  0  0  0  0  0  0  0  0  0  0
   -0.5930   -6.7906    1.7680 C   0  0  0  0  0  0  0  0  0  0  0  0
   -0.5133   -7.9168    2.5931 C   0  0  0  0  0  0  0  0  0  0  0  0
   -1.4701   -8.1175    3.5673 C   0  0  0  0  0  0  0  0  0  0  0  0
   -2.5096   -7.2048    3.7290 C   0  0  0  0  0  0  0  0  0  0  0  0
   -2.5984   -6.0920    2.9223 C   0  0  0  0  0  0  0  0  0  0  0  0
   -1.6449   -5.8706    1.9345 C   0  0  0  0  0  0  0  0  0  0  0  0
   -1.4728   -4.8735    0.9961 N   0  0  0  0  0  0  0  0  0  0  0  0
   -2.0555   -4.1061    0.8841 H   0  0  0  0  0  0  0  0  0  0  0  0
   -1.3979   -9.2111    4.3723 O   0  0  0  0  0  0  0  0  0  0  0  0
   -0.2439  -10.0427    4.2350 C   0  0  0  0  0  0  0  0  0  0  0  0
   -0.4670  -11.0407    3.0969 C   0  0  0  0  0  0  0  0  0  0  0  0
    0.7685  -11.9311    2.9499 C   0  0  0  0  0  0  0  0  0  0  0  0
    1.0074  -12.6917    4.2557 C   0  0  0  0  0  0  0  0  0  0  0  0
    1.2305  -11.6937    5.3938 C   0  0  0  0  0  0  0  0  0  0  0  0
   -0.0050  -10.8033    5.5408 C   0  0  0  0  0  0  0  0  0  0  0  0
    1.4648   -6.9279    0.1016 C   0  0  0  0  0  0  0  0  0  0  0  0
    2.6738   -6.4117    0.8384 C   0  0  0  0  0  0  0  0  0  0  0  0
    2.5402   -5.6059    1.7287 O   0  0  0  0  0  0  0  0  0  0  0  0
    1.5006    1.5647   -0.5132 H   0  0  0  0  0  0  0  0  0  0  0  0
   -0.1544    1.7133   -1.1513 H   0  0  0  0  0  0  0  0  0  0  0  0
    0.1245    1.7075    0.6067 H   0  0  0  0  0  0  0  0  0  0  0  0
    0.9229   -0.6362    0.4723 H   0  0  0  0  0  0  0  0  0  0  0  0
   -0.7321   -0.4875   -0.1658 H   0  0  0  0  0  0  0  0  0  0  0  0
   -0.1019   -2.4430    0.2275 H   0  0  0  0  0  0  0  0  0  0  0  0
    0.5130   -5.9362   -2.1828 H   0  0  0  0  0  0  0  0  0  0  0  0
    1.3458   -4.5229   -4.0137 H   0  0  0  0  0  0  0  0  0  0  0  0
    1.0901   -3.1310   -5.5563 H   0  0  0  0  0  0  0  0  0  0  0  0
    2.2815   -1.8478   -5.8761 H   0  0  0  0  0  0  0  0  0  0  0  0
    2.7482   -3.2789   -4.9261 H   0  0  0  0  0  0  0  0  0  0  0  0
    0.2925   -8.6252    2.4690 H   0  0  0  0  0  0  0  0  0  0  0  0
   -3.2533   -7.3714    4.4942 H   0  0  0  0  0  0  0  0  0  0  0  0
   -3.4087   -5.3909    3.0572 H   0  0  0  0  0  0  0  0  0  0  0  0
    0.6251   -9.4241    4.0106 H   0  0  0  0  0  0  0  0  0  0  0  0
   -1.3360  -11.6593    3.3213 H   0  0  0  0  0  0  0  0  0  0  0  0
   -0.6372  -10.4989    2.1666 H   0  0  0  0  0  0  0  0  0  0  0  0
    1.6375  -11.3125    2.7255 H   0  0  0  0  0  0  0  0  0  0  0  0
    0.6096  -12.6421    2.1391 H   0  0  0  0  0  0  0  0  0  0  0  0
    1.8876  -13.3260    4.1510 H   0  0  0  0  0  0  0  0  0  0  0  0
    0.1384  -13.3103    4.4801 H   0  0  0  0  0  0  0  0  0  0  0  0
    2.0995  -11.0751    5.1694 H   0  0  0  0  0  0  0  0  0  0  0  0
    1.4007  -12.2356    6.3241 H   0  0  0  0  0  0  0  0  0  0  0  0
    0.1539  -10.0923    6.3516 H   0  0  0  0  0  0  0  0  0  0  0  0
   -0.8740  -11.4219    5.7652 H   0  0  0  0  0  0  0  0  0  0  0  0
    1.4013   -8.0096    0.2205 H   0  0  0  0  0  0  0  0  0  0  0  0
    1.5526   -6.6834   -0.9570 H   0  0  0  0  0  0  0  0  0  0  0  0
    3.8991   -6.8470    0.5055 O   0  5  0  0  0  0  0  0  0  0  0  0
  1  2  1  0  0  0  0
  1 32  1  0  0  0  0
  1 33  1  0  0  0  0
  1 34  1  0  0  0  0
  2  3  1  0  0  0  0
  2 35  1  0  0  0  0
  2 36  1  0  0  0  0
  3  4  1  0  0  0  0
  4  9  2  0  0  0  0
  4  5  1  0  0  0  0
  5  6  2  0  0  0  0
  5 37  1  0  0  0  0
  6  7  1  0  0  0  0
  6 12  1  0  0  0  0
  7  8  2  0  0  0  0
  7 38  1  0  0  0  0
  8  9  1  0  0  0  0
  8 39  1  0  0  0  0
  9 10  1  0  0  0  0
 10 11  1  0  0  0  0
 11 40  1  0  0  0  0
 11 41  1  0  0  0  0
 11 42  1  0  0  0  0
 12 20  1  0  0  0  0
 12 13  2  0  0  0  0
 13 14  1  0  0  0  0
 13 29  1  0  0  0  0
 14 19  2  0  0  0  0
 14 15  1  0  0  0  0
 15 16  2  0  0  0  0
 15 43  1  0  0  0  0
 16 17  1  0  0  0  0
 16 22  1  0  0  0  0
 17 18  2  0  0  0  0
 17 44  1  0  0  0  0
 18 19  1  0  0  0  0
 18 45  1  0  0  0  0
 19 20  1  0  0  0  0
 20 21  1  0  0  0  0
 22 23  1  0  0  0  0
 23 28  1  0  0  0  0
 23 24  1  0  0  0  0
 23 46  1  0  0  0  0
 24 25  1  0  0  0  0
 24 47  1  0  0  0  0
 24 48  1  0  0  0  0
 25 26  1  0  0  0  0
 25 49  1  0  0  0  0
 25 50  1  0  0  0  0
 26 27  1  0  0  0  0
 26 51  1  0  0  0  0
 26 52  1  0  0  0  0
 27 28  1  0  0  0  0
 27 53  1  0  0  0  0
 27 54  1  0  0  0  0
 28 55  1  0  0  0  0
 28 56  1  0  0  0  0
 29 30  1  0  0  0  0
 29 57  1  0  0  0  0
 29 58  1  0  0  0  0
 30 31  2  0  0  0  0
 30 59  1  0  0  0  0
M  CHG  1  59  -1
M  END
$$$$
ZINC03752653
  -OEChem-08230709463D

 59 62  0     0  0  0  0  0  0999 V2000
    1.6382    3.4361   -0.9157 C   0  0  0  0  0  0  0  0  0  0  0  0
    1.7720    1.9131   -0.8561 C   0  0  0  0  0  0  0  0  0  0  0  0
    0.4915    1.3320   -0.6018 O   0  0  0  0  0  0  0  0  0  0  0  0
    0.4346   -0.0238   -0.5181 C   0  0  0  0  0  0  0  0  0  0  0  0
    1.5878   -0.7764   -0.6835 C   0  0  0  0  0  0  0  0  0  0  0  0
    1.5361   -2.1520   -0.5939 C   0  0  0  0  0  0  0  0  0  0  0  0
    0.3195   -2.7901   -0.3475 C   0  0  0  0  0  0  0  0  0  0  0  0
   -0.8421   -2.0332   -0.1867 C   0  0  0  0  0  0  0  0  0  0  0  0
   -0.7827   -0.6544   -0.2721 C   0  0  0  0  0  0  0  0  0  0  0  0
   -1.9127    0.0860   -0.1154 O   0  0  0  0  0  0  0  0  0  0  0  0
   -3.1258   -0.6267    0.1344 C   0  0  0  0  0  0  0  0  0  0  0  0
    0.2613   -4.2648   -0.2577 C   0  0  0  0  0  0  0  0  0  0  0  0
    1.1389   -5.0421    0.4245 C   0  0  0  0  0  0  0  0  0  0  0  0
    0.7070   -6.4279    0.2496 C   0  0  0  0  0  0  0  0  0  0  0  0
    1.1957   -7.6573    0.7026 C   0  0  0  0  0  0  0  0  0  0  0  0
    0.5463   -8.8220    0.3472 C   0  0  0  0  0  0  0  0  0  0  0  0
   -0.5887   -8.7752   -0.4586 C   0  0  0  0  0  0  0  0  0  0  0  0
   -1.0787   -7.5704   -0.9115 C   0  0  0  0  0  0  0  0  0  0  0  0
   -0.4400   -6.3847   -0.5649 C   0  0  0  0  0  0  0  0  0  0  0  0
   -0.6878   -5.0592   -0.8578 N   0  0  0  0  0  0  0  0  0  0  0  0
   -1.4211   -4.7362   -1.4045 H   0  0  0  0  0  0  0  0  0  0  0  0
    1.0169  -10.0204    0.7852 O   0  0  0  0  0  0  0  0  0  0  0  0
    2.1108   -9.9912    1.7042 C   0  0  0  0  0  0  0  0  0  0  0  0
    3.4259   -9.8913    0.9286 C   0  0  0  0  0  0  0  0  0  0  0  0
    4.5971   -9.8600    1.9125 C   0  0  0  0  0  0  0  0  0  0  0  0
    4.5945  -11.1409    2.7493 C   0  0  0  0  0  0  0  0  0  0  0  0
    3.2795  -11.2408    3.5249 C   0  0  0  0  0  0  0  0  0  0  0  0
    2.1082  -11.2721    2.5410 C   0  0  0  0  0  0  0  0  0  0  0  0
    2.3306   -4.5673    1.2153 C   0  0  0  0  0  0  0  0  0  0  0  0
    1.9161   -4.3062    2.6405 C   0  0  0  0  0  0  0  0  0  0  0  0
    0.7705   -4.4872    2.9792 O   0  0  0  0  0  0  0  0  0  0  0  0
    2.6149    3.8793   -1.1097 H   0  0  0  0  0  0  0  0  0  0  0  0
    0.9499    3.7093   -1.7155 H   0  0  0  0  0  0  0  0  0  0  0  0
    1.2544    3.8046    0.0356 H   0  0  0  0  0  0  0  0  0  0  0  0
    2.4603    1.6399   -0.0563 H   0  0  0  0  0  0  0  0  0  0  0  0
    2.1558    1.5446   -1.8074 H   0  0  0  0  0  0  0  0  0  0  0  0
    2.5290   -0.2841   -0.8789 H   0  0  0  0  0  0  0  0  0  0  0  0
    2.4363   -2.7354   -0.7187 H   0  0  0  0  0  0  0  0  0  0  0  0
   -1.7853   -2.5235    0.0044 H   0  0  0  0  0  0  0  0  0  0  0  0
   -3.9481    0.0811    0.2392 H   0  0  0  0  0  0  0  0  0  0  0  0
   -3.3298   -1.2998   -0.6984 H   0  0  0  0  0  0  0  0  0  0  0  0
   -3.0250   -1.2051    1.0527 H   0  0  0  0  0  0  0  0  0  0  0  0
    2.0758   -7.6950    1.3275 H   0  0  0  0  0  0  0  0  0  0  0  0
   -1.0892   -9.6926   -0.7312 H   0  0  0  0  0  0  0  0  0  0  0  0
   -1.9597   -7.5464   -1.5358 H   0  0  0  0  0  0  0  0  0  0  0  0
    2.0101   -9.1275    2.3615 H   0  0  0  0  0  0  0  0  0  0  0  0
    3.5265  -10.7550    0.2713 H   0  0  0  0  0  0  0  0  0  0  0  0
    3.4277   -8.9788    0.3324 H   0  0  0  0  0  0  0  0  0  0  0  0
    4.4965   -8.9964    2.5699 H   0  0  0  0  0  0  0  0  0  0  0  0
    5.5340   -9.7889    1.3600 H   0  0  0  0  0  0  0  0  0  0  0  0
    5.4290  -11.1186    3.4503 H   0  0  0  0  0  0  0  0  0  0  0  0
    4.6952  -12.0045    2.0920 H   0  0  0  0  0  0  0  0  0  0  0  0
    3.1788  -10.3771    4.1822 H   0  0  0  0  0  0  0  0  0  0  0  0
    3.2777  -12.1533    4.1211 H   0  0  0  0  0  0  0  0  0  0  0  0
    1.1713  -11.3432    3.0935 H   0  0  0  0  0  0  0  0  0  0  0  0
    2.2089  -12.1357    1.8837 H   0  0  0  0  0  0  0  0  0  0  0  0
    3.1069   -5.3322    1.1970 H   0  0  0  0  0  0  0  0  0  0  0  0
    2.7160   -3.6478    0.7748 H   0  0  0  0  0  0  0  0  0  0  0  0
    2.8195   -3.8727    3.5335 O   0  5  0  0  0  0  0  0  0  0  0  0
  1  2  1  0  0  0  0
  1 32  1  0  0  0  0
  1 33  1  0  0  0  0
  1 34  1  0  0  0  0
  2  3  1  0  0  0  0
  2 35  1  0  0  0  0
  2 36  1  0  0  0  0
  3  4  1  0  0  0  0
  4  9  2  0  0  0  0
  4  5  1  0  0  0  0
  5  6  2  0  0  0  0
  5 37  1  0  0  0  0
  6  7  1  0  0  0  0
  6 38  1  0  0  0  0
  7  8  2  0  0  0  0
  7 12  1  0  0  0  0
  8  9  1  0  0  0  0
  8 39  1  0  0  0  0
  9 10  1  0  0  0  0
 10 11  1  0  0  0  0
 11 40  1  0  0  0  0
 11 41  1  0  0  0  0
 11 42  1  0  0  0  0
 12 20  1  0  0  0  0
 12 13  2  0  0  0  0
 13 14  1  0  0  0  0
 13 29  1  0  0  0  0
 14 19  2  0  0  0  0
 14 15  1  0  0  0  0
 15 16  2  0  0  0  0
 15 43  1  0  0  0  0
 16 17  1  0  0  0  0
 16 22  1  0  0  0  0
 17 18  2  0  0  0  0
 17 44  1  0  0  0  0
 18 19  1  0  0  0  0
 18 45  1  0  0  0  0
 19 20  1  0  0  0  0
 20 21  1  0  0  0  0
 22 23  1  0  0  0  0
 23 28  1  0  0  0  0
 23 24  1  0  0  0  0
 23 46  1  0  0  0  0
 24 25  1  0  0  0  0
 24 47  1  0  0  0  0
 24 48  1  0  0  0  0
 25 26  1  0  0  0  0
 25 49  1  0  0  0  0
 25 50  1  0  0  0  0
 26 27  1  0  0  0  0
 26 51  1  0  0  0  0
 26 52  1  0  0  0  0
 27 28  1  0  0  0  0
 27 53  1  0  0  0  0
 27 54  1  0  0  0  0
 28 55  1  0  0  0  0
 28 56  1  0  0  0  0
 29 30  1  0  0  0  0
 29 57  1  0  0  0  0
 29 58  1  0  0  0  0
 30 31  2  0  0  0  0
 30 59  1  0  0  0  0
M  CHG  1  59  -1
M  END
$$$$
ZINC03752654
  -OEChem-08230709463D

 54 57  0     0  0  0  0  0  0999 V2000
    3.9058   11.3537   -0.0160 C   0  0  0  0  0  0  0  0  0  0  0  0
    4.6118   10.2474    0.7704 C   0  0  0  0  0  0  0  0  0  0  0  0
    3.8293    8.9654    0.6468 C   0  0  0  0  0  0  0  0  0  0  0  0
    4.1036    8.0880   -0.3871 C   0  0  0  0  0  0  0  0  0  0  0  0
    3.3909    6.9127   -0.5059 C   0  0  0  0  0  0  0  0  0  0  0  0
    2.3914    6.6098    0.4197 C   0  0  0  0  0  0  0  0  0  0  0  0
    2.1158    7.5018    1.4569 C   0  0  0  0  0  0  0  0  0  0  0  0
    2.8400    8.6708    1.5681 C   0  0  0  0  0  0  0  0  0  0  0  0
    1.6235    5.3517    0.2985 C   0  0  0  0  0  0  0  0  0  0  0  0
    0.2776    5.2419    0.4232 C   0  0  0  0  0  0  0  0  0  0  0  0
   -0.0550    3.8313    0.2313 C   0  0  0  0  0  0  0  0  0  0  0  0
   -1.2532    3.1103    0.2421 C   0  0  0  0  0  0  0  0  0  0  0  0
   -1.2320    1.7491    0.0153 C   0  0  0  0  0  0  0  0  0  0  0  0
   -0.0242    1.0940   -0.2124 C   0  0  0  0  0  0  0  0  0  0  0  0
    1.1620    1.7933   -0.2254 C   0  0  0  0  0  0  0  0  0  0  0  0
    1.1629    3.1666   -0.0045 C   0  0  0  0  0  0  0  0  0  0  0  0
    2.1650    4.1135    0.0419 N   0  0  0  0  0  0  0  0  0  0  0  0
    3.1093    3.9334   -0.0873 H   0  0  0  0  0  0  0  0  0  0  0  0
   -2.3947    1.0438    0.0196 O   0  0  0  0  0  0  0  0  0  0  0  0
   -3.6065    1.7914    0.1403 C   0  0  0  0  0  0  0  0  0  0  0  0
   -3.9007    2.0504    1.6193 C   0  0  0  0  0  0  0  0  0  0  0  0
   -5.1982    2.8508    1.7486 C   0  0  0  0  0  0  0  0  0  0  0  0
   -6.3510    2.0568    1.1308 C   0  0  0  0  0  0  0  0  0  0  0  0
   -6.0568    1.7978   -0.3482 C   0  0  0  0  0  0  0  0  0  0  0  0
   -4.7593    0.9974   -0.4775 C   0  0  0  0  0  0  0  0  0  0  0  0
   -0.6911    6.3613    0.7051 C   0  0  0  0  0  0  0  0  0  0  0  0
   -1.1616    6.9581   -0.5963 C   0  0  0  0  0  0  0  0  0  0  0  0
   -0.7522    6.5195   -1.6450 O   0  0  0  0  0  0  0  0  0  0  0  0
    3.8400   11.0680   -1.0658 H   0  0  0  0  0  0  0  0  0  0  0  0
    2.9025   11.5004    0.3842 H   0  0  0  0  0  0  0  0  0  0  0  0
    4.4717   12.2810    0.0734 H   0  0  0  0  0  0  0  0  0  0  0  0
    4.6776   10.5331    1.8202 H   0  0  0  0  0  0  0  0  0  0  0  0
    5.6150   10.1007    0.3702 H   0  0  0  0  0  0  0  0  0  0  0  0
    4.8771    8.3238   -1.1030 H   0  0  0  0  0  0  0  0  0  0  0  0
    3.6057    6.2288   -1.3137 H   0  0  0  0  0  0  0  0  0  0  0  0
    1.3403    7.2754    2.1737 H   0  0  0  0  0  0  0  0  0  0  0  0
    2.6310    9.3597    2.3731 H   0  0  0  0  0  0  0  0  0  0  0  0
   -2.1901    3.6164    0.4223 H   0  0  0  0  0  0  0  0  0  0  0  0
   -0.0184    0.0278   -0.3850 H   0  0  0  0  0  0  0  0  0  0  0  0
    2.0921    1.2752   -0.4068 H   0  0  0  0  0  0  0  0  0  0  0  0
   -3.5001    2.7427   -0.3810 H   0  0  0  0  0  0  0  0  0  0  0  0
   -4.0071    1.0992    2.1406 H   0  0  0  0  0  0  0  0  0  0  0  0
   -3.0795    2.6161    2.0594 H   0  0  0  0  0  0  0  0  0  0  0  0
   -5.0918    3.8021    1.2272 H   0  0  0  0  0  0  0  0  0  0  0  0
   -5.4078    3.0354    2.8022 H   0  0  0  0  0  0  0  0  0  0  0  0
   -7.2753    2.6270    1.2229 H   0  0  0  0  0  0  0  0  0  0  0  0
   -6.4574    1.1055    1.6521 H   0  0  0  0  0  0  0  0  0  0  0  0
   -5.9504    2.7490   -0.8695 H   0  0  0  0  0  0  0  0  0  0  0  0
   -6.8780    1.2321   -0.7883 H   0  0  0  0  0  0  0  0  0  0  0  0
   -4.5497    0.8128   -1.5311 H   0  0  0  0  0  0  0  0  0  0  0  0
   -4.8657    0.0461    0.0439 H   0  0  0  0  0  0  0  0  0  0  0  0
   -1.5468    5.9712    1.2562 H   0  0  0  0  0  0  0  0  0  0  0  0
   -0.1959    7.1294    1.2991 H   0  0  0  0  0  0  0  0  0  0  0  0
   -2.0354    7.9770   -0.5903 O   0  5  0  0  0  0  0  0  0  0  0  0
  1  2  1  0  0  0  0
  1 29  1  0  0  0  0
  1 30  1  0  0  0  0
  1 31  1  0  0  0  0
  2  3  1  0  0  0  0
  2 32  1  0  0  0  0
  2 33  1  0  0  0  0
  3  8  2  0  0  0  0
  3  4  1  0  0  0  0
  4  5  2  0  0  0  0
  4 34  1  0  0  0  0
  5  6  1  0  0  0  0
  5 35  1  0  0  0  0
  6  7  2  0  0  0  0
  6  9  1  0  0  0  0
  7  8  1  0  0  0  0
  7 36  1  0  0  0  0
  8 37  1  0  0  0  0
  9 17  1  0  0  0  0
  9 10  2  0  0  0  0
 10 11  1  0  0  0  0
 10 26  1  0  0  0  0
 11 16  2  0  0  0  0
 11 12  1  0  0  0  0
 12 13  2  0  0  0  0
 12 38  1  0  0  0  0
 13 14  1  0  0  0  0
 13 19  1  0  0  0  0
 14 15  2  0  0  0  0
 14 39  1  0  0  0  0
 15 16  1  0  0  0  0
 15 40  1  0  0  0  0
 16 17  1  0  0  0  0
 17 18  1  0  0  0  0
 19 20  1  0  0  0  0
 20 25  1  0  0  0  0
 20 21  1  0  0  0  0
 20 41  1  0  0  0  0
 21 22  1  0  0  0  0
 21 42  1  0  0  0  0
 21 43  1  0  0  0  0
 22 23  1  0  0  0  0
 22 44  1  0  0  0  0
 22 45  1  0  0  0  0
 23 24  1  0  0  0  0
 23 46  1  0  0  0  0
 23 47  1  0  0  0  0
 24 25  1  0  0  0  0
 24 48  1  0  0  0  0
 24 49  1  0  0  0  0
 25 50  1  0  0  0  0
 25 51  1  0  0  0  0
 26 27  1  0  0  0  0
 26 52  1  0  0  0  0
 26 53  1  0  0  0  0
 27 28  2  0  0  0  0
 27 54  1  0  0  0  0
M  CHG  1  54  -1
M  END
$$$$
ZINC03752658
  -OEChem-08230709463D

 57 60  0     0  0  0  0  0  0999 V2000
    3.6560   11.4388    0.6825 C   0  0  0  0  0  0  0  0  0  0  0  0
    4.6118   10.2474    0.7704 C   0  0  0  0  0  0  0  0  0  0  0  0
    5.3376   10.2741    2.1170 C   0  0  0  0  0  0  0  0  0  0  0  0
    3.8293    8.9654    0.6468 C   0  0  0  0  0  0  0  0  0  0  0  0
    4.1036    8.0880   -0.3871 C   0  0  0  0  0  0  0  0  0  0  0  0
    3.3909    6.9127   -0.5059 C   0  0  0  0  0  0  0  0  0  0  0  0
    2.3914    6.6098    0.4197 C   0  0  0  0  0  0  0  0  0  0  0  0
    2.1158    7.5018    1.4569 C   0  0  0  0  0  0  0  0  0  0  0  0
    2.8400    8.6708    1.5681 C   0  0  0  0  0  0  0  0  0  0  0  0
    1.6235    5.3517    0.2985 C   0  0  0  0  0  0  0  0  0  0  0  0
    0.2776    5.2419    0.4232 C   0  0  0  0  0  0  0  0  0  0  0  0
   -0.0550    3.8313    0.2313 C   0  0  0  0  0  0  0  0  0  0  0  0
   -1.2532    3.1103    0.2421 C   0  0  0  0  0  0  0  0  0  0  0  0
   -1.2320    1.7491    0.0153 C   0  0  0  0  0  0  0  0  0  0  0  0
   -0.0242    1.0940   -0.2124 C   0  0  0  0  0  0  0  0  0  0  0  0
    1.1620    1.7933   -0.2254 C   0  0  0  0  0  0  0  0  0  0  0  0
    1.1629    3.1666   -0.0045 C   0  0  0  0  0  0  0  0  0  0  0  0
    2.1650    4.1135    0.0419 N   0  0  0  0  0  0  0  0  0  0  0  0
    3.1093    3.9334   -0.0873 H   0  0  0  0  0  0  0  0  0  0  0  0
   -2.3947    1.0438    0.0196 O   0  0  0  0  0  0  0  0  0  0  0  0
   -3.6065    1.7914    0.1403 C   0  0  0  0  0  0  0  0  0  0  0  0
   -3.9007    2.0504    1.6193 C   0  0  0  0  0  0  0  0  0  0  0  0
   -5.1982    2.8508    1.7486 C   0  0  0  0  0  0  0  0  0  0  0  0
   -6.3510    2.0568    1.1308 C   0  0  0  0  0  0  0  0  0  0  0  0
   -6.0568    1.7978   -0.3482 C   0  0  0  0  0  0  0  0  0  0  0  0
   -4.7593    0.9974   -0.4775 C   0  0  0  0  0  0  0  0  0  0  0  0
   -0.6911    6.3613    0.7051 C   0  0  0  0  0  0  0  0  0  0  0  0
   -1.1616    6.9581   -0.5963 C   0  0  0  0  0  0  0  0  0  0  0  0
   -0.7522    6.5195   -1.6450 O   0  0  0  0  0  0  0  0  0  0  0  0
    2.9261   11.3794    1.4899 H   0  0  0  0  0  0  0  0  0  0  0  0
    4.2220   12.3661    0.7719 H   0  0  0  0  0  0  0  0  0  0  0  0
    3.1389   11.4198   -0.2769 H   0  0  0  0  0  0  0  0  0  0  0  0
    5.3417   10.3068   -0.0370 H   0  0  0  0  0  0  0  0  0  0  0  0
    6.0186    9.4253    2.1797 H   0  0  0  0  0  0  0  0  0  0  0  0
    5.9036   11.2013    2.2064 H   0  0  0  0  0  0  0  0  0  0  0  0
    4.6077   10.2147    2.9244 H   0  0  0  0  0  0  0  0  0  0  0  0
    4.8771    8.3238   -1.1030 H   0  0  0  0  0  0  0  0  0  0  0  0
    3.6057    6.2288   -1.3137 H   0  0  0  0  0  0  0  0  0  0  0  0
    1.3403    7.2754    2.1737 H   0  0  0  0  0  0  0  0  0  0  0  0
    2.6310    9.3597    2.3731 H   0  0  0  0  0  0  0  0  0  0  0  0
   -2.1901    3.6164    0.4223 H   0  0  0  0  0  0  0  0  0  0  0  0
   -0.0184    0.0278   -0.3850 H   0  0  0  0  0  0  0  0  0  0  0  0
    2.0921    1.2752   -0.4068 H   0  0  0  0  0  0  0  0  0  0  0  0
   -3.5001    2.7427   -0.3810 H   0  0  0  0  0  0  0  0  0  0  0  0
   -4.0071    1.0992    2.1406 H   0  0  0  0  0  0  0  0  0  0  0  0
   -3.0795    2.6161    2.0594 H   0  0  0  0  0  0  0  0  0  0  0  0
   -5.0918    3.8021    1.2272 H   0  0  0  0  0  0  0  0  0  0  0  0
   -5.4078    3.0354    2.8022 H   0  0  0  0  0  0  0  0  0  0  0  0
   -7.2753    2.6270    1.2229 H   0  0  0  0  0  0  0  0  0  0  0  0
   -6.4574    1.1055    1.6521 H   0  0  0  0  0  0  0  0  0  0  0  0
   -5.9504    2.7490   -0.8695 H   0  0  0  0  0  0  0  0  0  0  0  0
   -6.8780    1.2321   -0.7883 H   0  0  0  0  0  0  0  0  0  0  0  0
   -4.5497    0.8128   -1.5311 H   0  0  0  0  0  0  0  0  0  0  0  0
   -4.8657    0.0461    0.0439 H   0  0  0  0  0  0  0  0  0  0  0  0
   -1.5468    5.9712    1.2562 H   0  0  0  0  0  0  0  0  0  0  0  0
   -0.1959    7.1294    1.2991 H   0  0  0  0  0  0  0  0  0  0  0  0
   -2.0354    7.9770   -0.5903 O   0  5  0  0  0  0  0  0  0  0  0  0
  1  2  1  0  0  0  0
  1 30  1  0  0  0  0
  1 31  1  0  0  0  0
  1 32  1  0  0  0  0
  2  3  1  0  0  0  0
  2  4  1  0  0  0  0
  2 33  1  0  0  0  0
  3 34  1  0  0  0  0
  3 35  1  0  0  0  0
  3 36  1  0  0  0  0
  4  9  2  0  0  0  0
  4  5  1  0  0  0  0
  5  6  2  0  0  0  0
  5 37  1  0  0  0  0
  6  7  1  0  0  0  0
  6 38  1  0  0  0  0
  7  8  2  0  0  0  0
  7 10  1  0  0  0  0
  8  9  1  0  0  0  0
  8 39  1  0  0  0  0
  9 40  1  0  0  0  0
 10 18  1  0  0  0  0
 10 11  2  0  0  0  0
 11 12  1  0  0  0  0
 11 27  1  0  0  0  0
 12 17  2  0  0  0  0
 12 13  1  0  0  0  0
 13 14  2  0  0  0  0
 13 41  1  0  0  0  0
 14 15  1  0  0  0  0
 14 20  1  0  0  0  0
 15 16  2  0  0  0  0
 15 42  1  0  0  0  0
 16 17  1  0  0  0  0
 16 43  1  0  0  0  0
 17 18  1  0  0  0  0
 18 19  1  0  0  0  0
 20 21  1  0  0  0  0
 21 26  1  0  0  0  0
 21 22  1  0  0  0  0
 21 44  1  0  0  0  0
 22 23  1  0  0  0  0
 22 45  1  0  0  0  0
 22 46  1  0  0  0  0
 23 24  1  0  0  0  0
 23 47  1  0  0  0  0
 23 48  1  0  0  0  0
 24 25  1  0  0  0  0
 24 49  1  0  0  0  0
 24 50  1  0  0  0  0
 25 26  1  0  0  0  0
 25 51  1  0  0  0  0
 25 52  1  0  0  0  0
 26 53  1  0  0  0  0
 26 54  1  0  0  0  0
 27 28  1  0  0  0  0
 27 55  1  0  0  0  0
 27 56  1  0  0  0  0
 28 29  2  0  0  0  0
 28 57  1  0  0  0  0
M  CHG  1  57  -1
M  END
$$$$
ZINC03752659
  -OEChem-08230709463D

 52 55  0     0  0  0  0  0  0999 V2000
   -1.3192    6.3245   -0.7727 C   0  0  0  0  0  0  0  0  0  0  0  0
   -0.0959    5.6158   -0.5642 O   0  0  0  0  0  0  0  0  0  0  0  0
   -0.1818    4.2688   -0.4121 C   0  0  0  0  0  0  0  0  0  0  0  0
   -1.4156    3.6406   -0.4616 C   0  0  0  0  0  0  0  0  0  0  0  0
   -1.5013    2.2693   -0.3119 C   0  0  0  0  0  0  0  0  0  0  0  0
   -0.3594    1.5161   -0.1005 C   0  0  0  0  0  0  0  0  0  0  0  0
    0.8765    2.1269   -0.0487 C   0  0  0  0  0  0  0  0  0  0  0  0
    0.9761    3.5098   -0.2042 C   0  0  0  0  0  0  0  0  0  0  0  0
    2.2974    4.1703   -0.1492 C   0  0  0  0  0  0  0  0  0  0  0  0
    2.6913    5.0540    0.8016 C   0  0  0  0  0  0  0  0  0  0  0  0
    4.0586    5.4537    0.4725 C   0  0  0  0  0  0  0  0  0  0  0  0
    4.9811    6.3217    1.0651 C   0  0  0  0  0  0  0  0  0  0  0  0
    6.2265    6.4867    0.4936 C   0  0  0  0  0  0  0  0  0  0  0  0
    6.5644    5.7931   -0.6659 C   0  0  0  0  0  0  0  0  0  0  0  0
    5.6642    4.9353   -1.2582 C   0  0  0  0  0  0  0  0  0  0  0  0
    4.4037    4.7546   -0.6991 C   0  0  0  0  0  0  0  0  0  0  0  0
    3.3181    3.9786   -1.0510 N   0  0  0  0  0  0  0  0  0  0  0  0
    3.2797    3.3888   -1.8202 H   0  0  0  0  0  0  0  0  0  0  0  0
    7.1274    7.3301    1.0650 O   0  0  0  0  0  0  0  0  0  0  0  0
    6.7634    7.9175    2.3158 C   0  0  0  0  0  0  0  0  0  0  0  0
    5.9246    9.1722    2.0651 C   0  0  0  0  0  0  0  0  0  0  0  0
    5.5349    9.8012    3.4043 C   0  0  0  0  0  0  0  0  0  0  0  0
    6.7999   10.1795    4.1773 C   0  0  0  0  0  0  0  0  0  0  0  0
    7.6387    8.9247    4.4281 C   0  0  0  0  0  0  0  0  0  0  0  0
    8.0284    8.2958    3.0889 C   0  0  0  0  0  0  0  0  0  0  0  0
    1.8747    5.5330    1.9741 C   0  0  0  0  0  0  0  0  0  0  0  0
    2.1045    4.6217    3.1522 C   0  0  0  0  0  0  0  0  0  0  0  0
    2.8546    3.6800    3.0502 O   0  0  0  0  0  0  0  0  0  0  0  0
   -1.9798    6.1675    0.0799 H   0  0  0  0  0  0  0  0  0  0  0  0
   -1.1090    7.3888   -0.8785 H   0  0  0  0  0  0  0  0  0  0  0  0
   -1.8017    5.9576   -1.6786 H   0  0  0  0  0  0  0  0  0  0  0  0
   -2.3111    4.2227   -0.6218 H   0  0  0  0  0  0  0  0  0  0  0  0
   -2.4648    1.7833   -0.3560 H   0  0  0  0  0  0  0  0  0  0  0  0
   -0.4358    0.4456    0.0200 H   0  0  0  0  0  0  0  0  0  0  0  0
    1.7657    1.5353    0.1116 H   0  0  0  0  0  0  0  0  0  0  0  0
    4.7203    6.8602    1.9641 H   0  0  0  0  0  0  0  0  0  0  0  0
    7.5416    5.9294   -1.1051 H   0  0  0  0  0  0  0  0  0  0  0  0
    5.9374    4.4025   -2.1570 H   0  0  0  0  0  0  0  0  0  0  0  0
    6.1822    7.2022    2.8977 H   0  0  0  0  0  0  0  0  0  0  0  0
    6.5058    9.8875    1.4831 H   0  0  0  0  0  0  0  0  0  0  0  0
    5.0234    8.9027    1.5143 H   0  0  0  0  0  0  0  0  0  0  0  0
    4.9537    9.0859    3.9862 H   0  0  0  0  0  0  0  0  0  0  0  0
    4.9373   10.6951    3.2256 H   0  0  0  0  0  0  0  0  0  0  0  0
    6.5222   10.6276    5.1314 H   0  0  0  0  0  0  0  0  0  0  0  0
    7.3811   10.8948    3.5954 H   0  0  0  0  0  0  0  0  0  0  0  0
    7.0575    8.2094    5.0100 H   0  0  0  0  0  0  0  0  0  0  0  0
    8.5399    9.1942    4.9788 H   0  0  0  0  0  0  0  0  0  0  0  0
    8.6260    7.4019    3.2675 H   0  0  0  0  0  0  0  0  0  0  0  0
    8.6096    9.0111    2.5069 H   0  0  0  0  0  0  0  0  0  0  0  0
    2.1748    6.5477    2.2356 H   0  0  0  0  0  0  0  0  0  0  0  0
    0.8176    5.5238    1.7085 H   0  0  0  0  0  0  0  0  0  0  0  0
    1.4760    4.8563    4.3148 O   0  5  0  0  0  0  0  0  0  0  0  0
  1  2  1  0  0  0  0
  1 29  1  0  0  0  0
  1 30  1  0  0  0  0
  1 31  1  0  0  0  0
  2  3  1  0  0  0  0
  3  8  2  0  0  0  0
  3  4  1  0  0  0  0
  4  5  2  0  0  0  0
  4 32  1  0  0  0  0
  5  6  1  0  0  0  0
  5 33  1  0  0  0  0
  6  7  2  0  0  0  0
  6 34  1  0  0  0  0
  7  8  1  0  0  0  0
  7 35  1  0  0  0  0
  8  9  1  0  0  0  0
  9 17  1  0  0  0  0
  9 10  2  0  0  0  0
 10 11  1  0  0  0  0
 10 26  1  0  0  0  0
 11 16  2  0  0  0  0
 11 12  1  0  0  0  0
 12 13  2  0  0  0  0
 12 36  1  0  0  0  0
 13 14  1  0  0  0  0
 13 19  1  0  0  0  0
 14 15  2  0  0  0  0
 14 37  1  0  0  0  0
 15 16  1  0  0  0  0
 15 38  1  0  0  0  0
 16 17  1  0  0  0  0
 17 18  1  0  0  0  0
 19 20  1  0  0  0  0
 20 25  1  0  0  0  0
 20 21  1  0  0  0  0
 20 39  1  0  0  0  0
 21 22  1  0  0  0  0
 21 40  1  0  0  0  0
 21 41  1  0  0  0  0
 22 23  1  0  0  0  0
 22 42  1  0  0  0  0
 22 43  1  0  0  0  0
 23 24  1  0  0  0  0
 23 44  1  0  0  0  0
 23 45  1  0  0  0  0
 24 25  1  0  0  0  0
 24 46  1  0  0  0  0
 24 47  1  0  0  0  0
 25 48  1  0  0  0  0
 25 49  1  0  0  0  0
 26 27  1  0  0  0  0
 26 50  1  0  0  0  0
 26 51  1  0  0  0  0
 27 28  2  0  0  0  0
 27 52  1  0  0  0  0
M  CHG  1  52  -1
M  END
$$$$
ZINC03752660
  -OEChem-08230709463D

 52 55  0     0  0  0  0  0  0999 V2000
    1.7570   -0.4342   -0.2636 C   0  0  0  0  0  0  0  0  0  0  0  0
    1.8955    0.9835   -0.1494 O   0  0  0  0  0  0  0  0  0  0  0  0
    0.7641    1.7260   -0.2752 C   0  0  0  0  0  0  0  0  0  0  0  0
   -0.4544    1.1008   -0.5041 C   0  0  0  0  0  0  0  0  0  0  0  0
   -1.6074    1.8515   -0.6391 C   0  0  0  0  0  0  0  0  0  0  0  0
   -1.5564    3.2269   -0.5357 C   0  0  0  0  0  0  0  0  0  0  0  0
   -0.3362    3.8638   -0.3058 C   0  0  0  0  0  0  0  0  0  0  0  0
    0.8272    3.1055   -0.1756 C   0  0  0  0  0  0  0  0  0  0  0  0
   -0.2768    5.3379   -0.2011 C   0  0  0  0  0  0  0  0  0  0  0  0
   -1.1414    6.1071    0.5059 C   0  0  0  0  0  0  0  0  0  0  0  0
   -0.7142    7.4950    0.3367 C   0  0  0  0  0  0  0  0  0  0  0  0
   -1.1951    8.7193    0.8114 C   0  0  0  0  0  0  0  0  0  0  0  0
   -0.5531    9.8881    0.4560 C   0  0  0  0  0  0  0  0  0  0  0  0
    0.5667    9.8505   -0.3713 C   0  0  0  0  0  0  0  0  0  0  0  0
    1.0489    8.6510   -0.8458 C   0  0  0  0  0  0  0  0  0  0  0  0
    0.4174    7.4611   -0.4995 C   0  0  0  0  0  0  0  0  0  0  0  0
    0.6604    6.1393   -0.8107 N   0  0  0  0  0  0  0  0  0  0  0  0
    1.3836    5.8226   -1.3741 H   0  0  0  0  0  0  0  0  0  0  0  0
   -1.0161   11.0815    0.9151 O   0  0  0  0  0  0  0  0  0  0  0  0
   -2.0926   11.0419    1.8540 C   0  0  0  0  0  0  0  0  0  0  0  0
   -3.4219   10.9490    1.1022 C   0  0  0  0  0  0  0  0  0  0  0  0
   -4.5745   10.9067    2.1075 C   0  0  0  0  0  0  0  0  0  0  0  0
   -4.5571   12.1788    2.9573 C   0  0  0  0  0  0  0  0  0  0  0  0
   -3.2278   12.2717    3.7091 C   0  0  0  0  0  0  0  0  0  0  0  0
   -2.0752   12.3141    2.7038 C   0  0  0  0  0  0  0  0  0  0  0  0
   -2.3172    5.6231    1.3147 C   0  0  0  0  0  0  0  0  0  0  0  0
   -1.8749    5.3476    2.7287 C   0  0  0  0  0  0  0  0  0  0  0  0
   -0.7231    5.5260    3.0471 O   0  0  0  0  0  0  0  0  0  0  0  0
    1.0811   -0.7968    0.5107 H   0  0  0  0  0  0  0  0  0  0  0  0
    1.3518   -0.6818   -1.2448 H   0  0  0  0  0  0  0  0  0  0  0  0
    2.7327   -0.9053   -0.1441 H   0  0  0  0  0  0  0  0  0  0  0  0
   -0.5010    0.0246   -0.5815 H   0  0  0  0  0  0  0  0  0  0  0  0
   -2.5516    1.3600   -0.8214 H   0  0  0  0  0  0  0  0  0  0  0  0
   -2.4597    3.8101   -0.6371 H   0  0  0  0  0  0  0  0  0  0  0  0
    1.7744    3.5930    0.0020 H   0  0  0  0  0  0  0  0  0  0  0  0
   -2.0633    8.7499    1.4531 H   0  0  0  0  0  0  0  0  0  0  0  0
    1.0615   10.7711   -0.6437 H   0  0  0  0  0  0  0  0  0  0  0  0
    1.9180    8.6342   -1.4866 H   0  0  0  0  0  0  0  0  0  0  0  0
   -1.9792   10.1716    2.5004 H   0  0  0  0  0  0  0  0  0  0  0  0
   -3.5354   11.8193    0.4558 H   0  0  0  0  0  0  0  0  0  0  0  0
   -3.4344   10.0427    0.4968 H   0  0  0  0  0  0  0  0  0  0  0  0
   -4.4611   10.0363    2.7539 H   0  0  0  0  0  0  0  0  0  0  0  0
   -5.5215   10.8405    1.5719 H   0  0  0  0  0  0  0  0  0  0  0  0
   -5.3782   12.1486    3.6735 H   0  0  0  0  0  0  0  0  0  0  0  0
   -4.6705   13.0491    2.3109 H   0  0  0  0  0  0  0  0  0  0  0  0
   -3.1143   11.4014    4.3555 H   0  0  0  0  0  0  0  0  0  0  0  0
   -3.2154   13.1781    4.3145 H   0  0  0  0  0  0  0  0  0  0  0  0
   -1.1282   12.3803    3.2395 H   0  0  0  0  0  0  0  0  0  0  0  0
   -2.1886   13.1844    2.0575 H   0  0  0  0  0  0  0  0  0  0  0  0
   -3.0943    6.3875    1.3195 H   0  0  0  0  0  0  0  0  0  0  0  0
   -2.7105    4.7079    0.8722 H   0  0  0  0  0  0  0  0  0  0  0  0
   -2.7606    4.9040    3.6346 O   0  5  0  0  0  0  0  0  0  0  0  0
  1  2  1  0  0  0  0
  1 29  1  0  0  0  0
  1 30  1  0  0  0  0
  1 31  1  0  0  0  0
  2  3  1  0  0  0  0
  3  8  2  0  0  0  0
  3  4  1  0  0  0  0
  4  5  2  0  0  0  0
  4 32  1  0  0  0  0
  5  6  1  0  0  0  0
  5 33  1  0  0  0  0
  6  7  2  0  0  0  0
  6 34  1  0  0  0  0
  7  8  1  0  0  0  0
  7  9  1  0  0  0  0
  8 35  1  0  0  0  0
  9 17  1  0  0  0  0
  9 10  2  0  0  0  0
 10 11  1  0  0  0  0
 10 26  1  0  0  0  0
 11 16  2  0  0  0  0
 11 12  1  0  0  0  0
 12 13  2  0  0  0  0
 12 36  1  0  0  0  0
 13 14  1  0  0  0  0
 13 19  1  0  0  0  0
 14 15  2  0  0  0  0
 14 37  1  0  0  0  0
 15 16  1  0  0  0  0
 15 38  1  0  0  0  0
 16 17  1  0  0  0  0
 17 18  1  0  0  0  0
 19 20  1  0  0  0  0
 20 25  1  0  0  0  0
 20 21  1  0  0  0  0
 20 39  1  0  0  0  0
 21 22  1  0  0  0  0
 21 40  1  0  0  0  0
 21 41  1  0  0  0  0
 22 23  1  0  0  0  0
 22 42  1  0  0  0  0
 22 43  1  0  0  0  0
 23 24  1  0  0  0  0
 23 44  1  0  0  0  0
 23 45  1  0  0  0  0
 24 25  1  0  0  0  0
 24 46  1  0  0  0  0
 24 47  1  0  0  0  0
 25 48  1  0  0  0  0
 25 49  1  0  0  0  0
 26 27  1  0  0  0  0
 26 50  1  0  0  0  0
 26 51  1  0  0  0  0
 27 28  2  0  0  0  0
 27 52  1  0  0  0  0
M  CHG  1  52  -1
M  END
$$$$
ZINC03752661
  -OEChem-08230709463D

 52 55  0     0  0  0  0  0  0999 V2000
    4.2009   10.9838    1.8517 C   0  0  0  0  0  0  0  0  0  0  0  0
    4.5345   10.1232    0.7608 O   0  0  0  0  0  0  0  0  0  0  0  0
    3.8294    8.9671    0.6493 C   0  0  0  0  0  0  0  0  0  0  0  0
    4.1036    8.0861   -0.3885 C   0  0  0  0  0  0  0  0  0  0  0  0
    3.3904    6.9122   -0.5050 C   0  0  0  0  0  0  0  0  0  0  0  0
    2.3916    6.6095    0.4219 C   0  0  0  0  0  0  0  0  0  0  0  0
    2.1154    7.5002    1.4606 C   0  0  0  0  0  0  0  0  0  0  0  0
    2.8362    8.6698    1.5731 C   0  0  0  0  0  0  0  0  0  0  0  0
    1.6240    5.3516    0.3002 C   0  0  0  0  0  0  0  0  0  0  0  0
    0.2778    5.2416    0.4252 C   0  0  0  0  0  0  0  0  0  0  0  0
   -0.0548    3.8311    0.2323 C   0  0  0  0  0  0  0  0  0  0  0  0
   -1.2530    3.1102    0.2428 C   0  0  0  0  0  0  0  0  0  0  0  0
   -1.2319    1.7491    0.0152 C   0  0  0  0  0  0  0  0  0  0  0  0
   -0.0242    1.0941   -0.2130 C   0  0  0  0  0  0  0  0  0  0  0  0
    1.1621    1.7936   -0.2261 C   0  0  0  0  0  0  0  0  0  0  0  0
    1.1630    3.1666   -0.0045 C   0  0  0  0  0  0  0  0  0  0  0  0
    2.1654    4.1138    0.0424 N   0  0  0  0  0  0  0  0  0  0  0  0
    3.1097    3.9339   -0.0874 H   0  0  0  0  0  0  0  0  0  0  0  0
   -2.3946    1.0438    0.0192 O   0  0  0  0  0  0  0  0  0  0  0  0
   -3.6065    1.7914    0.1400 C   0  0  0  0  0  0  0  0  0  0  0  0
   -3.9009    2.0500    1.6189 C   0  0  0  0  0  0  0  0  0  0  0  0
   -5.1984    2.8504    1.7483 C   0  0  0  0  0  0  0  0  0  0  0  0
   -6.3510    2.0566    1.1300 C   0  0  0  0  0  0  0  0  0  0  0  0
   -6.0566    1.7980   -0.3489 C   0  0  0  0  0  0  0  0  0  0  0  0
   -4.7591    0.9976   -0.4783 C   0  0  0  0  0  0  0  0  0  0  0  0
   -0.6909    6.3607    0.7087 C   0  0  0  0  0  0  0  0  0  0  0  0
   -1.1617    6.9589   -0.5919 C   0  0  0  0  0  0  0  0  0  0  0  0
   -0.7527    6.5215   -1.6412 O   0  0  0  0  0  0  0  0  0  0  0  0
    3.1563   11.2844    1.7711 H   0  0  0  0  0  0  0  0  0  0  0  0
    4.3552   10.4548    2.7922 H   0  0  0  0  0  0  0  0  0  0  0  0
    4.8369   11.8686    1.8240 H   0  0  0  0  0  0  0  0  0  0  0  0
    4.8763    8.3212   -1.1055 H   0  0  0  0  0  0  0  0  0  0  0  0
    3.6040    6.2277   -1.3127 H   0  0  0  0  0  0  0  0  0  0  0  0
    1.3403    7.2716    2.1771 H   0  0  0  0  0  0  0  0  0  0  0  0
    2.6259    9.3575    2.3789 H   0  0  0  0  0  0  0  0  0  0  0  0
   -2.1898    3.6163    0.4237 H   0  0  0  0  0  0  0  0  0  0  0  0
   -0.0184    0.0280   -0.3858 H   0  0  0  0  0  0  0  0  0  0  0  0
    2.0922    1.2757   -0.4083 H   0  0  0  0  0  0  0  0  0  0  0  0
   -3.4999    2.7428   -0.3811 H   0  0  0  0  0  0  0  0  0  0  0  0
   -4.0074    1.0985    2.1400 H   0  0  0  0  0  0  0  0  0  0  0  0
   -3.0797    2.6154    2.0594 H   0  0  0  0  0  0  0  0  0  0  0  0
   -5.0918    3.8018    1.2273 H   0  0  0  0  0  0  0  0  0  0  0  0
   -5.4081    3.0346    2.8020 H   0  0  0  0  0  0  0  0  0  0  0  0
   -7.2754    2.6268    1.2222 H   0  0  0  0  0  0  0  0  0  0  0  0
   -6.4576    1.1051    1.6511 H   0  0  0  0  0  0  0  0  0  0  0  0
   -5.9501    2.7495   -0.8699 H   0  0  0  0  0  0  0  0  0  0  0  0
   -6.8778    1.2325   -0.7894 H   0  0  0  0  0  0  0  0  0  0  0  0
   -4.5494    0.8134   -1.5319 H   0  0  0  0  0  0  0  0  0  0  0  0
   -4.8657    0.0461    0.0427 H   0  0  0  0  0  0  0  0  0  0  0  0
   -1.5463    5.9699    1.2596 H   0  0  0  0  0  0  0  0  0  0  0  0
   -0.1955    7.1282    1.3034 H   0  0  0  0  0  0  0  0  0  0  0  0
   -2.0356    7.9778   -0.5845 O   0  5  0  0  0  0  0  0  0  0  0  0
  1  2  1  0  0  0  0
  1 29  1  0  0  0  0
  1 30  1  0  0  0  0
  1 31  1  0  0  0  0
  2  3  1  0  0  0  0
  3  8  2  0  0  0  0
  3  4  1  0  0  0  0
  4  5  2  0  0  0  0
  4 32  1  0  0  0  0
  5  6  1  0  0  0  0
  5 33  1  0  0  0  0
  6  7  2  0  0  0  0
  6  9  1  0  0  0  0
  7  8  1  0  0  0  0
  7 34  1  0  0  0  0
  8 35  1  0  0  0  0
  9 17  1  0  0  0  0
  9 10  2  0  0  0  0
 10 11  1  0  0  0  0
 10 26  1  0  0  0  0
 11 16  2  0  0  0  0
 11 12  1  0  0  0  0
 12 13  2  0  0  0  0
 12 36  1  0  0  0  0
 13 14  1  0  0  0  0
 13 19  1  0  0  0  0
 14 15  2  0  0  0  0
 14 37  1  0  0  0  0
 15 16  1  0  0  0  0
 15 38  1  0  0  0  0
 16 17  1  0  0  0  0
 17 18  1  0  0  0  0
 19 20  1  0  0  0  0
 20 25  1  0  0  0  0
 20 21  1  0  0  0  0
 20 39  1  0  0  0  0
 21 22  1  0  0  0  0
 21 40  1  0  0  0  0
 21 41  1  0  0  0  0
 22 23  1  0  0  0  0
 22 42  1  0  0  0  0
 22 43  1  0  0  0  0
 23 24  1  0  0  0  0
 23 44  1  0  0  0  0
 23 45  1  0  0  0  0
 24 25  1  0  0  0  0
 24 46  1  0  0  0  0
 24 47  1  0  0  0  0
 25 48  1  0  0  0  0
 25 49  1  0  0  0  0
 26 27  1  0  0  0  0
 26 50  1  0  0  0  0
 26 51  1  0  0  0  0
 27 28  2  0  0  0  0
 27 52  1  0  0  0  0
M  CHG  1  52  -1
M  END
$$$$
ZINC03752669
  -OEChem-08230709463D

 60 63  0     0  0  0  0  0  0999 V2000
   -0.3507   -2.1643    5.7136 C   0  0  0  0  0  0  0  0  0  0  0  0
   -0.8283   -1.6814    4.4563 O   0  0  0  0  0  0  0  0  0  0  0  0
   -0.3226   -0.4982    4.0171 C   0  0  0  0  0  0  0  0  0  0  0  0
    0.6144    0.1813    4.7840 C   0  0  0  0  0  0  0  0  0  0  0  0
    1.1319    1.3817    4.3453 C   0  0  0  0  0  0  0  0  0  0  0  0
    0.7144    1.9188    3.1262 C   0  0  0  0  0  0  0  0  0  0  0  0
   -0.2297    1.2350    2.3517 C   0  0  0  0  0  0  0  0  0  0  0  0
   -0.7486    0.0299    2.8034 C   0  0  0  0  0  0  0  0  0  0  0  0
   -1.6707   -0.6369    2.0569 O   0  0  0  0  0  0  0  0  0  0  0  0
   -1.1813   -1.6441    1.1691 C   0  0  0  0  0  0  0  0  0  0  0  0
   -0.6410    1.7523    1.1638 O   0  0  0  0  0  0  0  0  0  0  0  0
    0.1694    1.4750    0.0200 C   0  0  0  0  0  0  0  0  0  0  0  0
    1.2681    3.2054    2.6547 C   0  0  0  0  0  0  0  0  0  0  0  0
    0.5574    4.3491    2.4881 C   0  0  0  0  0  0  0  0  0  0  0  0
    1.4921    5.3669    2.0107 C   0  0  0  0  0  0  0  0  0  0  0  0
    1.3596    6.7157    1.6665 C   0  0  0  0  0  0  0  0  0  0  0  0
    2.4655    7.4222    1.2388 C   0  0  0  0  0  0  0  0  0  0  0  0
    3.7069    6.7973    1.1513 C   0  0  0  0  0  0  0  0  0  0  0  0
    3.8495    5.4691    1.4876 C   0  0  0  0  0  0  0  0  0  0  0  0
    2.7483    4.7388    1.9205 C   0  0  0  0  0  0  0  0  0  0  0  0
    2.5842    3.4286    2.3231 N   0  0  0  0  0  0  0  0  0  0  0  0
    3.2902    2.7647    2.3637 H   0  0  0  0  0  0  0  0  0  0  0  0
    2.3424    8.7340    0.9020 O   0  0  0  0  0  0  0  0  0  0  0  0
    1.0686    9.3434    1.1215 C   0  0  0  0  0  0  0  0  0  0  0  0
    0.1585    9.0688   -0.0773 C   0  0  0  0  0  0  0  0  0  0  0  0
   -1.2053    9.7213    0.1577 C   0  0  0  0  0  0  0  0  0  0  0  0
   -1.0259   11.2313    0.3266 C   0  0  0  0  0  0  0  0  0  0  0  0
   -0.1158   11.5059    1.5255 C   0  0  0  0  0  0  0  0  0  0  0  0
    1.2480   10.8534    1.2904 C   0  0  0  0  0  0  0  0  0  0  0  0
   -0.9157    4.5349    2.7460 C   0  0  0  0  0  0  0  0  0  0  0  0
   -1.1250    4.9676    4.1743 C   0  0  0  0  0  0  0  0  0  0  0  0
   -0.1753    5.1104    4.9076 O   0  0  0  0  0  0  0  0  0  0  0  0
   -0.5830   -1.4390    6.4934 H   0  0  0  0  0  0  0  0  0  0  0  0
   -0.8333   -3.1138    5.9451 H   0  0  0  0  0  0  0  0  0  0  0  0
    0.7285   -2.3084    5.6612 H   0  0  0  0  0  0  0  0  0  0  0  0
    0.9389   -0.2317    5.7276 H   0  0  0  0  0  0  0  0  0  0  0  0
    1.8602    1.9069    4.9453 H   0  0  0  0  0  0  0  0  0  0  0  0
   -0.5730   -2.3559    1.7272 H   0  0  0  0  0  0  0  0  0  0  0  0
   -2.0223   -2.1651    0.7117 H   0  0  0  0  0  0  0  0  0  0  0  0
   -0.5752   -1.1795    0.3914 H   0  0  0  0  0  0  0  0  0  0  0  0
    0.3104    0.3982   -0.0730 H   0  0  0  0  0  0  0  0  0  0  0  0
    1.1388    1.9598    0.1355 H   0  0  0  0  0  0  0  0  0  0  0  0
   -0.3228    1.8556   -0.8749 H   0  0  0  0  0  0  0  0  0  0  0  0
    0.3975    7.2016    1.7346 H   0  0  0  0  0  0  0  0  0  0  0  0
    4.5661    7.3593    0.8161 H   0  0  0  0  0  0  0  0  0  0  0  0
    4.8172    4.9950    1.4154 H   0  0  0  0  0  0  0  0  0  0  0  0
    0.6176    8.9280    2.0227 H   0  0  0  0  0  0  0  0  0  0  0  0
    0.6095    9.4842   -0.9785 H   0  0  0  0  0  0  0  0  0  0  0  0
    0.0307    7.9930   -0.1976 H   0  0  0  0  0  0  0  0  0  0  0  0
   -1.6563    9.3059    1.0589 H   0  0  0  0  0  0  0  0  0  0  0  0
   -1.8537    9.5257   -0.6963 H   0  0  0  0  0  0  0  0  0  0  0  0
   -1.9975   11.6961    0.4941 H   0  0  0  0  0  0  0  0  0  0  0  0
   -0.5749   11.6467   -0.5746 H   0  0  0  0  0  0  0  0  0  0  0  0
   -0.5668   11.0905    2.4267 H   0  0  0  0  0  0  0  0  0  0  0  0
    0.0120   12.5816    1.6458 H   0  0  0  0  0  0  0  0  0  0  0  0
    1.8964   11.0490    2.1445 H   0  0  0  0  0  0  0  0  0  0  0  0
    1.6990   11.2687    0.3892 H   0  0  0  0  0  0  0  0  0  0  0  0
   -1.3089    5.2978    2.0740 H   0  0  0  0  0  0  0  0  0  0  0  0
   -1.4368    3.5936    2.5715 H   0  0  0  0  0  0  0  0  0  0  0  0
   -2.3663    5.1943    4.6319 O   0  5  0  0  0  0  0  0  0  0  0  0
  1  2  1  0  0  0  0
  1 33  1  0  0  0  0
  1 34  1  0  0  0  0
  1 35  1  0  0  0  0
  2  3  1  0  0  0  0
  3  8  2  0  0  0  0
  3  4  1  0  0  0  0
  4  5  2  0  0  0  0
  4 36  1  0  0  0  0
  5  6  1  0  0  0  0
  5 37  1  0  0  0  0
  6  7  2  0  0  0  0
  6 13  1  0  0  0  0
  7  8  1  0  0  0  0
  7 11  1  0  0  0  0
  8  9  1  0  0  0  0
  9 10  1  0  0  0  0
 10 38  1  0  0  0  0
 10 39  1  0  0  0  0
 10 40  1  0  0  0  0
 11 12  1  0  0  0  0
 12 41  1  0  0  0  0
 12 42  1  0  0  0  0
 12 43  1  0  0  0  0
 13 21  1  0  0  0  0
 13 14  2  0  0  0  0
 14 15  1  0  0  0  0
 14 30  1  0  0  0  0
 15 20  2  0  0  0  0
 15 16  1  0  0  0  0
 16 17  2  0  0  0  0
 16 44  1  0  0  0  0
 17 18  1  0  0  0  0
 17 23  1  0  0  0  0
 18 19  2  0  0  0  0
 18 45  1  0  0  0  0
 19 20  1  0  0  0  0
 19 46  1  0  0  0  0
 20 21  1  0  0  0  0
 21 22  1  0  0  0  0
 23 24  1  0  0  0  0
 24 29  1  0  0  0  0
 24 25  1  0  0  0  0
 24 47  1  0  0  0  0
 25 26  1  0  0  0  0
 25 48  1  0  0  0  0
 25 49  1  0  0  0  0
 26 27  1  0  0  0  0
 26 50  1  0  0  0  0
 26 51  1  0  0  0  0
 27 28  1  0  0  0  0
 27 52  1  0  0  0  0
 27 53  1  0  0  0  0
 28 29  1  0  0  0  0
 28 54  1  0  0  0  0
 28 55  1  0  0  0  0
 29 56  1  0  0  0  0
 29 57  1  0  0  0  0
 30 31  1  0  0  0  0
 30 58  1  0  0  0  0
 30 59  1  0  0  0  0
 31 32  2  0  0  0  0
 31 60  1  0  0  0  0
M  CHG  1  60  -1
M  END
$$$$
ZINC03752670
  -OEChem-08230709463D

 60 63  0     0  0  0  0  0  0999 V2000
   -2.3916   -3.0391    2.8352 C   0  0  0  0  0  0  0  0  0  0  0  0
   -3.1373   -3.1697    1.6233 O   0  0  0  0  0  0  0  0  0  0  0  0
   -2.7097   -2.4454    0.5537 C   0  0  0  0  0  0  0  0  0  0  0  0
   -1.5996   -1.6305    0.6717 C   0  0  0  0  0  0  0  0  0  0  0  0
   -1.1615   -0.8877   -0.4261 C   0  0  0  0  0  0  0  0  0  0  0  0
   -1.8527   -0.9679   -1.6410 C   0  0  0  0  0  0  0  0  0  0  0  0
   -2.9605   -1.7904   -1.7513 C   0  0  0  0  0  0  0  0  0  0  0  0
   -3.3917   -2.5261   -0.6582 C   0  0  0  0  0  0  0  0  0  0  0  0
   -4.4830   -3.3290   -0.7695 O   0  0  0  0  0  0  0  0  0  0  0  0
   -5.1352   -3.3648   -2.0405 C   0  0  0  0  0  0  0  0  0  0  0  0
   -1.4340   -0.2427   -2.7114 O   0  0  0  0  0  0  0  0  0  0  0  0
   -2.1873   -0.3740   -3.9186 C   0  0  0  0  0  0  0  0  0  0  0  0
    0.0246   -0.0147   -0.3044 C   0  0  0  0  0  0  0  0  0  0  0  0
    0.0143    1.3383   -0.4076 C   0  0  0  0  0  0  0  0  0  0  0  0
    1.3924    1.7908   -0.2246 C   0  0  0  0  0  0  0  0  0  0  0  0
    2.0048    3.0479   -0.2226 C   0  0  0  0  0  0  0  0  0  0  0  0
    3.3660    3.1431   -0.0150 C   0  0  0  0  0  0  0  0  0  0  0  0
    4.1266    1.9948    0.1909 C   0  0  0  0  0  0  0  0  0  0  0  0
    3.5344    0.7511    0.1905 C   0  0  0  0  0  0  0  0  0  0  0  0
    2.1645    0.6327   -0.0162 C   0  0  0  0  0  0  0  0  0  0  0  0
    1.3084   -0.4489   -0.0698 N   0  0  0  0  0  0  0  0  0  0  0  0
    1.5725   -1.3756    0.0413 H   0  0  0  0  0  0  0  0  0  0  0  0
    3.9669    4.3630   -0.0120 O   0  0  0  0  0  0  0  0  0  0  0  0
    3.1149    5.5061   -0.1087 C   0  0  0  0  0  0  0  0  0  0  0  0
    2.8089    5.7911   -1.5804 C   0  0  0  0  0  0  0  0  0  0  0  0
    1.8967    7.0150   -1.6840 C   0  0  0  0  0  0  0  0  0  0  0  0
    2.5965    8.2265   -1.0647 C   0  0  0  0  0  0  0  0  0  0  0  0
    2.9025    7.9416    0.4070 C   0  0  0  0  0  0  0  0  0  0  0  0
    3.8147    6.7176    0.5106 C   0  0  0  0  0  0  0  0  0  0  0  0
   -1.1881    2.2086   -0.6678 C   0  0  0  0  0  0  0  0  0  0  0  0
   -1.8157    2.6036    0.6442 C   0  0  0  0  0  0  0  0  0  0  0  0
   -1.3358    2.2180    1.6838 O   0  0  0  0  0  0  0  0  0  0  0  0
   -2.8377   -3.6678    3.6059 H   0  0  0  0  0  0  0  0  0  0  0  0
   -1.3614   -3.3510    2.6633 H   0  0  0  0  0  0  0  0  0  0  0  0
   -2.4068   -1.9991    3.1609 H   0  0  0  0  0  0  0  0  0  0  0  0
   -1.0716   -1.5687    1.6118 H   0  0  0  0  0  0  0  0  0  0  0  0
   -3.4923   -1.8559   -2.6891 H   0  0  0  0  0  0  0  0  0  0  0  0
   -5.4802   -2.3640   -2.3002 H   0  0  0  0  0  0  0  0  0  0  0  0
   -4.4349   -3.7158   -2.7984 H   0  0  0  0  0  0  0  0  0  0  0  0
   -5.9880   -4.0420   -1.9924 H   0  0  0  0  0  0  0  0  0  0  0  0
   -2.1720   -1.4138   -4.2452 H   0  0  0  0  0  0  0  0  0  0  0  0
   -3.2170   -0.0644   -3.7398 H   0  0  0  0  0  0  0  0  0  0  0  0
   -1.7475    0.2562   -4.6917 H   0  0  0  0  0  0  0  0  0  0  0  0
    1.4160    3.9392   -0.3818 H   0  0  0  0  0  0  0  0  0  0  0  0
    5.1911    2.0802    0.3520 H   0  0  0  0  0  0  0  0  0  0  0  0
    4.1344   -0.1324    0.3513 H   0  0  0  0  0  0  0  0  0  0  0  0
    2.1845    5.3120    0.4249 H   0  0  0  0  0  0  0  0  0  0  0  0
    3.7394    5.9853   -2.1140 H   0  0  0  0  0  0  0  0  0  0  0  0
    2.3104    4.9280   -2.0216 H   0  0  0  0  0  0  0  0  0  0  0  0
    0.9663    6.8209   -1.1504 H   0  0  0  0  0  0  0  0  0  0  0  0
    1.6787    7.2181   -2.7325 H   0  0  0  0  0  0  0  0  0  0  0  0
    1.9466    9.0985   -1.1385 H   0  0  0  0  0  0  0  0  0  0  0  0
    3.5269    8.4207   -1.5983 H   0  0  0  0  0  0  0  0  0  0  0  0
    1.9720    7.7474    0.9406 H   0  0  0  0  0  0  0  0  0  0  0  0
    3.4010    8.8047    0.8482 H   0  0  0  0  0  0  0  0  0  0  0  0
    4.0327    6.5146    1.5591 H   0  0  0  0  0  0  0  0  0  0  0  0
    4.7451    6.9118   -0.0230 H   0  0  0  0  0  0  0  0  0  0  0  0
   -0.8787    3.1041   -1.2067 H   0  0  0  0  0  0  0  0  0  0  0  0
   -1.9134    1.6569   -1.2659 H   0  0  0  0  0  0  0  0  0  0  0  0
   -2.9078    3.3839    0.6578 O   0  5  0  0  0  0  0  0  0  0  0  0
  1  2  1  0  0  0  0
  1 33  1  0  0  0  0
  1 34  1  0  0  0  0
  1 35  1  0  0  0  0
  2  3  1  0  0  0  0
  3  8  2  0  0  0  0
  3  4  1  0  0  0  0
  4  5  2  0  0  0  0
  4 36  1  0  0  0  0
  5  6  1  0  0  0  0
  5 13  1  0  0  0  0
  6  7  2  0  0  0  0
  6 11  1  0  0  0  0
  7  8  1  0  0  0  0
  7 37  1  0  0  0  0
  8  9  1  0  0  0  0
  9 10  1  0  0  0  0
 10 38  1  0  0  0  0
 10 39  1  0  0  0  0
 10 40  1  0  0  0  0
 11 12  1  0  0  0  0
 12 41  1  0  0  0  0
 12 42  1  0  0  0  0
 12 43  1  0  0  0  0
 13 21  1  0  0  0  0
 13 14  2  0  0  0  0
 14 15  1  0  0  0  0
 14 30  1  0  0  0  0
 15 20  2  0  0  0  0
 15 16  1  0  0  0  0
 16 17  2  0  0  0  0
 16 44  1  0  0  0  0
 17 18  1  0  0  0  0
 17 23  1  0  0  0  0
 18 19  2  0  0  0  0
 18 45  1  0  0  0  0
 19 20  1  0  0  0  0
 19 46  1  0  0  0  0
 20 21  1  0  0  0  0
 21 22  1  0  0  0  0
 23 24  1  0  0  0  0
 24 29  1  0  0  0  0
 24 25  1  0  0  0  0
 24 47  1  0  0  0  0
 25 26  1  0  0  0  0
 25 48  1  0  0  0  0
 25 49  1  0  0  0  0
 26 27  1  0  0  0  0
 26 50  1  0  0  0  0
 26 51  1  0  0  0  0
 27 28  1  0  0  0  0
 27 52  1  0  0  0  0
 27 53  1  0  0  0  0
 28 29  1  0  0  0  0
 28 54  1  0  0  0  0
 28 55  1  0  0  0  0
 29 56  1  0  0  0  0
 29 57  1  0  0  0  0
 30 31  1  0  0  0  0
 30 58  1  0  0  0  0
 30 59  1  0  0  0  0
 31 32  2  0  0  0  0
 31 60  1  0  0  0  0
M  CHG  1  60  -1
M  END
$$$$
ZINC03752671
  -OEChem-08230709463D

 60 63  0     0  0  0  0  0  0999 V2000
   -6.1626    1.2207    5.1312 C   0  0  0  0  0  0  0  0  0  0  0  0
   -4.8553    1.5247    5.6217 O   0  0  0  0  0  0  0  0  0  0  0  0
   -3.8287    1.4458    4.7332 C   0  0  0  0  0  0  0  0  0  0  0  0
   -4.0765    1.0842    3.4208 C   0  0  0  0  0  0  0  0  0  0  0  0
   -3.0226    1.0034    2.5095 C   0  0  0  0  0  0  0  0  0  0  0  0
   -1.7202    1.2821    2.9260 C   0  0  0  0  0  0  0  0  0  0  0  0
   -1.4781    1.6489    4.2381 C   0  0  0  0  0  0  0  0  0  0  0  0
   -2.5302    1.7283    5.1447 C   0  0  0  0  0  0  0  0  0  0  0  0
   -2.2889    2.0832    6.4358 O   0  0  0  0  0  0  0  0  0  0  0  0
   -2.0040    1.0280    7.3563 C   0  0  0  0  0  0  0  0  0  0  0  0
   -0.2098    1.9261    4.6432 O   0  0  0  0  0  0  0  0  0  0  0  0
    0.8221    1.8248    3.6597 C   0  0  0  0  0  0  0  0  0  0  0  0
   -3.2848    0.6172    1.1065 C   0  0  0  0  0  0  0  0  0  0  0  0
   -2.7642    1.2325    0.0155 C   0  0  0  0  0  0  0  0  0  0  0  0
   -3.2873    0.5350   -1.1581 C   0  0  0  0  0  0  0  0  0  0  0  0
   -3.1116    0.6956   -2.5360 C   0  0  0  0  0  0  0  0  0  0  0  0
   -3.7580   -0.1552   -3.4096 C   0  0  0  0  0  0  0  0  0  0  0  0
   -4.5771   -1.1711   -2.9232 C   0  0  0  0  0  0  0  0  0  0  0  0
   -4.7536   -1.3423   -1.5680 C   0  0  0  0  0  0  0  0  0  0  0  0
   -4.1112   -0.4965   -0.6702 C   0  0  0  0  0  0  0  0  0  0  0  0
   -4.0941   -0.4210    0.7075 N   0  0  0  0  0  0  0  0  0  0  0  0
   -4.5797   -1.0112    1.3048 H   0  0  0  0  0  0  0  0  0  0  0  0
   -3.5950   -0.0005   -4.7508 O   0  0  0  0  0  0  0  0  0  0  0  0
   -2.6498    0.9815   -5.1804 C   0  0  0  0  0  0  0  0  0  0  0  0
   -3.3243    2.3542   -5.2231 C   0  0  0  0  0  0  0  0  0  0  0  0
   -2.3123    3.4055   -5.6831 C   0  0  0  0  0  0  0  0  0  0  0  0
   -1.8011    3.0448   -7.0793 C   0  0  0  0  0  0  0  0  0  0  0  0
   -1.1267    1.6721   -7.0366 C   0  0  0  0  0  0  0  0  0  0  0  0
   -2.1386    0.6208   -6.5766 C   0  0  0  0  0  0  0  0  0  0  0  0
   -1.8293    2.4144    0.0134 C   0  0  0  0  0  0  0  0  0  0  0  0
   -0.4036    1.9273    0.0475 C   0  0  0  0  0  0  0  0  0  0  0  0
   -0.1706    0.7420    0.0711 O   0  0  0  0  0  0  0  0  0  0  0  0
   -6.4181    1.9101    4.3265 H   0  0  0  0  0  0  0  0  0  0  0  0
   -6.1803    0.1985    4.7532 H   0  0  0  0  0  0  0  0  0  0  0  0
   -6.8866    1.3217    5.9397 H   0  0  0  0  0  0  0  0  0  0  0  0
   -5.0848    0.8649    3.1018 H   0  0  0  0  0  0  0  0  0  0  0  0
   -0.9024    1.2157    2.2237 H   0  0  0  0  0  0  0  0  0  0  0  0
   -2.8495    0.3411    7.3945 H   0  0  0  0  0  0  0  0  0  0  0  0
   -1.1139    0.4907    7.0290 H   0  0  0  0  0  0  0  0  0  0  0  0
   -1.8314    1.4472    8.3475 H   0  0  0  0  0  0  0  0  0  0  0  0
    1.7820    2.0713    4.1136 H   0  0  0  0  0  0  0  0  0  0  0  0
    0.8547    0.8071    3.2708 H   0  0  0  0  0  0  0  0  0  0  0  0
    0.6166    2.5189    2.8447 H   0  0  0  0  0  0  0  0  0  0  0  0
   -2.4770    1.4832   -2.9145 H   0  0  0  0  0  0  0  0  0  0  0  0
   -5.0790   -1.8310   -3.6154 H   0  0  0  0  0  0  0  0  0  0  0  0
   -5.3909   -2.1338   -1.2024 H   0  0  0  0  0  0  0  0  0  0  0  0
   -1.8126    1.0095   -4.4830 H   0  0  0  0  0  0  0  0  0  0  0  0
   -4.1615    2.3261   -5.9205 H   0  0  0  0  0  0  0  0  0  0  0  0
   -3.6884    2.6111   -4.2284 H   0  0  0  0  0  0  0  0  0  0  0  0
   -1.4751    3.4335   -4.9856 H   0  0  0  0  0  0  0  0  0  0  0  0
   -2.7928    4.3834   -5.7135 H   0  0  0  0  0  0  0  0  0  0  0  0
   -1.0802    3.7938   -7.4070 H   0  0  0  0  0  0  0  0  0  0  0  0
   -2.6383    3.0167   -7.7767 H   0  0  0  0  0  0  0  0  0  0  0  0
   -0.2895    1.7002   -6.3392 H   0  0  0  0  0  0  0  0  0  0  0  0
   -0.7625    1.4151   -8.0313 H   0  0  0  0  0  0  0  0  0  0  0  0
   -1.6582   -0.3571   -6.5462 H   0  0  0  0  0  0  0  0  0  0  0  0
   -2.9759    0.5927   -7.2741 H   0  0  0  0  0  0  0  0  0  0  0  0
   -2.0231    3.0326    0.8900 H   0  0  0  0  0  0  0  0  0  0  0  0
   -1.9905    3.0035   -0.8894 H   0  0  0  0  0  0  0  0  0  0  0  0
    0.6075    2.8101    0.0460 O   0  5  0  0  0  0  0  0  0  0  0  0
  1  2  1  0  0  0  0
  1 33  1  0  0  0  0
  1 34  1  0  0  0  0
  1 35  1  0  0  0  0
  2  3  1  0  0  0  0
  3  8  2  0  0  0  0
  3  4  1  0  0  0  0
  4  5  2  0  0  0  0
  4 36  1  0  0  0  0
  5  6  1  0  0  0  0
  5 13  1  0  0  0  0
  6  7  2  0  0  0  0
  6 37  1  0  0  0  0
  7  8  1  0  0  0  0
  7 11  1  0  0  0  0
  8  9  1  0  0  0  0
  9 10  1  0  0  0  0
 10 38  1  0  0  0  0
 10 39  1  0  0  0  0
 10 40  1  0  0  0  0
 11 12  1  0  0  0  0
 12 41  1  0  0  0  0
 12 42  1  0  0  0  0
 12 43  1  0  0  0  0
 13 21  1  0  0  0  0
 13 14  2  0  0  0  0
 14 15  1  0  0  0  0
 14 30  1  0  0  0  0
 15 20  2  0  0  0  0
 15 16  1  0  0  0  0
 16 17  2  0  0  0  0
 16 44  1  0  0  0  0
 17 18  1  0  0  0  0
 17 23  1  0  0  0  0
 18 19  2  0  0  0  0
 18 45  1  0  0  0  0
 19 20  1  0  0  0  0
 19 46  1  0  0  0  0
 20 21  1  0  0  0  0
 21 22  1  0  0  0  0
 23 24  1  0  0  0  0
 24 29  1  0  0  0  0
 24 25  1  0  0  0  0
 24 47  1  0  0  0  0
 25 26  1  0  0  0  0
 25 48  1  0  0  0  0
 25 49  1  0  0  0  0
 26 27  1  0  0  0  0
 26 50  1  0  0  0  0
 26 51  1  0  0  0  0
 27 28  1  0  0  0  0
 27 52  1  0  0  0  0
 27 53  1  0  0  0  0
 28 29  1  0  0  0  0
 28 54  1  0  0  0  0
 28 55  1  0  0  0  0
 29 56  1  0  0  0  0
 29 57  1  0  0  0  0
 30 31  1  0  0  0  0
 30 58  1  0  0  0  0
 30 59  1  0  0  0  0
 31 32  2  0  0  0  0
 31 60  1  0  0  0  0
M  CHG  1  60  -1
M  END
$$$$
ZINC03752678
  -OEChem-08230709463D

 55 58  0     0  0  0  0  0  0999 V2000
    3.1265   -1.0955   -0.0958 C   0  0  0  0  0  0  0  0  0  0  0  0
    1.7570   -0.4342   -0.2636 C   0  0  0  0  0  0  0  0  0  0  0  0
    1.8955    0.9835   -0.1494 O   0  0  0  0  0  0  0  0  0  0  0  0
    0.7641    1.7260   -0.2752 C   0  0  0  0  0  0  0  0  0  0  0  0
   -0.4544    1.1008   -0.5041 C   0  0  0  0  0  0  0  0  0  0  0  0
   -1.6074    1.8515   -0.6391 C   0  0  0  0  0  0  0  0  0  0  0  0
   -1.5564    3.2269   -0.5357 C   0  0  0  0  0  0  0  0  0  0  0  0
   -0.3362    3.8638   -0.3058 C   0  0  0  0  0  0  0  0  0  0  0  0
    0.8272    3.1055   -0.1756 C   0  0  0  0  0  0  0  0  0  0  0  0
   -0.2768    5.3379   -0.2011 C   0  0  0  0  0  0  0  0  0  0  0  0
   -1.1414    6.1071    0.5059 C   0  0  0  0  0  0  0  0  0  0  0  0
   -0.7142    7.4950    0.3367 C   0  0  0  0  0  0  0  0  0  0  0  0
   -1.1951    8.7193    0.8114 C   0  0  0  0  0  0  0  0  0  0  0  0
   -0.5531    9.8881    0.4560 C   0  0  0  0  0  0  0  0  0  0  0  0
    0.5667    9.8505   -0.3713 C   0  0  0  0  0  0  0  0  0  0  0  0
    1.0489    8.6510   -0.8458 C   0  0  0  0  0  0  0  0  0  0  0  0
    0.4174    7.4611   -0.4995 C   0  0  0  0  0  0  0  0  0  0  0  0
    0.6604    6.1393   -0.8107 N   0  0  0  0  0  0  0  0  0  0  0  0
    1.3836    5.8226   -1.3741 H   0  0  0  0  0  0  0  0  0  0  0  0
   -1.0161   11.0815    0.9151 O   0  0  0  0  0  0  0  0  0  0  0  0
   -2.0926   11.0419    1.8540 C   0  0  0  0  0  0  0  0  0  0  0  0
   -3.4219   10.9490    1.1022 C   0  0  0  0  0  0  0  0  0  0  0  0
   -4.5745   10.9067    2.1075 C   0  0  0  0  0  0  0  0  0  0  0  0
   -4.5571   12.1788    2.9573 C   0  0  0  0  0  0  0  0  0  0  0  0
   -3.2278   12.2717    3.7091 C   0  0  0  0  0  0  0  0  0  0  0  0
   -2.0752   12.3141    2.7038 C   0  0  0  0  0  0  0  0  0  0  0  0
   -2.3172    5.6231    1.3147 C   0  0  0  0  0  0  0  0  0  0  0  0
   -1.8749    5.3476    2.7287 C   0  0  0  0  0  0  0  0  0  0  0  0
   -0.7231    5.5260    3.0471 O   0  0  0  0  0  0  0  0  0  0  0  0
    3.0209   -2.1769   -0.1829 H   0  0  0  0  0  0  0  0  0  0  0  0
    3.8024   -0.7329   -0.8702 H   0  0  0  0  0  0  0  0  0  0  0  0
    3.5317   -0.8479    0.8853 H   0  0  0  0  0  0  0  0  0  0  0  0
    1.0811   -0.7968    0.5107 H   0  0  0  0  0  0  0  0  0  0  0  0
    1.3518   -0.6818   -1.2448 H   0  0  0  0  0  0  0  0  0  0  0  0
   -0.5010    0.0246   -0.5815 H   0  0  0  0  0  0  0  0  0  0  0  0
   -2.5516    1.3600   -0.8214 H   0  0  0  0  0  0  0  0  0  0  0  0
   -2.4597    3.8101   -0.6371 H   0  0  0  0  0  0  0  0  0  0  0  0
    1.7744    3.5930    0.0020 H   0  0  0  0  0  0  0  0  0  0  0  0
   -2.0633    8.7499    1.4531 H   0  0  0  0  0  0  0  0  0  0  0  0
    1.0615   10.7711   -0.6437 H   0  0  0  0  0  0  0  0  0  0  0  0
    1.9180    8.6342   -1.4866 H   0  0  0  0  0  0  0  0  0  0  0  0
   -1.9792   10.1716    2.5004 H   0  0  0  0  0  0  0  0  0  0  0  0
   -3.5354   11.8193    0.4558 H   0  0  0  0  0  0  0  0  0  0  0  0
   -3.4344   10.0427    0.4968 H   0  0  0  0  0  0  0  0  0  0  0  0
   -4.4611   10.0363    2.7539 H   0  0  0  0  0  0  0  0  0  0  0  0
   -5.5215   10.8405    1.5719 H   0  0  0  0  0  0  0  0  0  0  0  0
   -5.3782   12.1486    3.6735 H   0  0  0  0  0  0  0  0  0  0  0  0
   -4.6705   13.0491    2.3109 H   0  0  0  0  0  0  0  0  0  0  0  0
   -3.1143   11.4014    4.3555 H   0  0  0  0  0  0  0  0  0  0  0  0
   -3.2154   13.1781    4.3145 H   0  0  0  0  0  0  0  0  0  0  0  0
   -1.1282   12.3803    3.2395 H   0  0  0  0  0  0  0  0  0  0  0  0
   -2.1886   13.1844    2.0575 H   0  0  0  0  0  0  0  0  0  0  0  0
   -3.0943    6.3875    1.3195 H   0  0  0  0  0  0  0  0  0  0  0  0
   -2.7105    4.7079    0.8722 H   0  0  0  0  0  0  0  0  0  0  0  0
   -2.7606    4.9040    3.6346 O   0  5  0  0  0  0  0  0  0  0  0  0
  1  2  1  0  0  0  0
  1 30  1  0  0  0  0
  1 31  1  0  0  0  0
  1 32  1  0  0  0  0
  2  3  1  0  0  0  0
  2 33  1  0  0  0  0
  2 34  1  0  0  0  0
  3  4  1  0  0  0  0
  4  9  2  0  0  0  0
  4  5  1  0  0  0  0
  5  6  2  0  0  0  0
  5 35  1  0  0  0  0
  6  7  1  0  0  0  0
  6 36  1  0  0  0  0
  7  8  2  0  0  0  0
  7 37  1  0  0  0  0
  8  9  1  0  0  0  0
  8 10  1  0  0  0  0
  9 38  1  0  0  0  0
 10 18  1  0  0  0  0
 10 11  2  0  0  0  0
 11 12  1  0  0  0  0
 11 27  1  0  0  0  0
 12 17  2  0  0  0  0
 12 13  1  0  0  0  0
 13 14  2  0  0  0  0
 13 39  1  0  0  0  0
 14 15  1  0  0  0  0
 14 20  1  0  0  0  0
 15 16  2  0  0  0  0
 15 40  1  0  0  0  0
 16 17  1  0  0  0  0
 16 41  1  0  0  0  0
 17 18  1  0  0  0  0
 18 19  1  0  0  0  0
 20 21  1  0  0  0  0
 21 26  1  0  0  0  0
 21 22  1  0  0  0  0
 21 42  1  0  0  0  0
 22 23  1  0  0  0  0
 22 43  1  0  0  0  0
 22 44  1  0  0  0  0
 23 24  1  0  0  0  0
 23 45  1  0  0  0  0
 23 46  1  0  0  0  0
 24 25  1  0  0  0  0
 24 47  1  0  0  0  0
 24 48  1  0  0  0  0
 25 26  1  0  0  0  0
 25 49  1  0  0  0  0
 25 50  1  0  0  0  0
 26 51  1  0  0  0  0
 26 52  1  0  0  0  0
 27 28  1  0  0  0  0
 27 53  1  0  0  0  0
 27 54  1  0  0  0  0
 28 29  2  0  0  0  0
 28 55  1  0  0  0  0
M  CHG  1  55  -1
M  END
$$$$
ZINC03757394
  -OEChem-08230709463D

 49 51  0     1  0  0  0  0  0999 V2000
   -3.5218    2.0222   14.2410 C   0  0  0  0  0  0  0  0  0  0  0  0
   -2.8298    1.6042   12.9420 C   0  0  0  0  0  0  0  0  0  0  0  0
   -2.4570    2.8516   12.1384 C   0  0  1  0  0  0  0  0  0  0  0  0
   -3.3467    3.4612   11.9802 H   0  0  0  0  0  0  0  0  0  0  0  0
   -1.4138    3.6624   12.9100 C   0  0  0  0  0  0  0  0  0  0  0  0
   -1.8873    2.4390   10.8057 C   0  0  0  0  0  0  0  0  0  0  0  0
   -0.7401    1.6496   10.7626 C   0  0  0  0  0  0  0  0  0  0  0  0
   -0.1997    1.2594    9.5761 C   0  0  0  0  0  0  0  0  0  0  0  0
   -0.8053    1.6566    8.3694 C   0  0  0  0  0  0  0  0  0  0  0  0
   -1.9722    2.4603    8.4196 C   0  0  0  0  0  0  0  0  0  0  0  0
   -2.5008    2.8432    9.6570 C   0  0  0  0  0  0  0  0  0  0  0  0
   -2.5964    2.8708    7.1614 C   0  0  0  0  0  0  0  0  0  0  0  0
   -1.9992    2.4421    5.9843 C   0  0  0  0  0  0  0  0  0  0  0  0
   -0.8436    1.6479    6.0477 C   0  0  0  0  0  0  0  0  0  0  0  0
   -0.3012    1.2855    7.1915 N   0  0  0  0  0  0  0  0  0  0  0  0
   -0.2158    1.1968    4.7838 C   0  0  0  0  0  0  0  0  0  0  0  0
   -0.7710    1.5603    3.5578 C   0  0  0  0  0  0  0  0  0  0  0  0
   -0.1798    1.1363    2.3807 C   0  0  0  0  0  0  0  0  0  0  0  0
    0.9613    0.3458    2.4188 C   0  0  0  0  0  0  0  0  0  0  0  0
    1.5194   -0.0134    3.6301 C   0  0  0  0  0  0  0  0  0  0  0  0
    0.9366    0.4049    4.8159 C   0  0  0  0  0  0  0  0  0  0  0  0
    1.4833    0.0462    6.0069 O   0  0  0  0  0  0  0  0  0  0  0  0
    2.6600   -0.7634    5.9630 C   0  0  0  0  0  0  0  0  0  0  0  0
   -0.7206    1.4898    1.1842 O   0  0  0  0  0  0  0  0  0  0  0  0
   -0.0595    1.0178    0.0086 C   0  0  0  0  0  0  0  0  0  0  0  0
   -3.8144    3.7080    7.1449 C   0  0  0  0  0  0  0  0  0  0  0  0
   -4.3757    3.9840    8.1860 O   0  0  0  0  0  0  0  0  0  0  0  0
   -2.8466    2.6444   14.8284 H   0  0  0  0  0  0  0  0  0  0  0  0
   -4.4244    2.5865   14.0065 H   0  0  0  0  0  0  0  0  0  0  0  0
   -3.7874    1.1335   14.8135 H   0  0  0  0  0  0  0  0  0  0  0  0
   -3.5050    0.9819   12.3546 H   0  0  0  0  0  0  0  0  0  0  0  0
   -1.9272    1.0399   13.1765 H   0  0  0  0  0  0  0  0  0  0  0  0
   -0.5242    3.0528   13.0682 H   0  0  0  0  0  0  0  0  0  0  0  0
   -1.1483    4.5511   12.3375 H   0  0  0  0  0  0  0  0  0  0  0  0
   -1.8259    3.9609   13.8740 H   0  0  0  0  0  0  0  0  0  0  0  0
   -0.2721    1.3421   11.6861 H   0  0  0  0  0  0  0  0  0  0  0  0
    0.6898    0.6472    9.5606 H   0  0  0  0  0  0  0  0  0  0  0  0
   -3.3893    3.4555    9.7022 H   0  0  0  0  0  0  0  0  0  0  0  0
   -2.4195    2.7173    5.0283 H   0  0  0  0  0  0  0  0  0  0  0  0
   -1.6610    2.1714    3.5268 H   0  0  0  0  0  0  0  0  0  0  0  0
    1.4164    0.0137    1.4974 H   0  0  0  0  0  0  0  0  0  0  0  0
    2.4093   -0.6249    3.6534 H   0  0  0  0  0  0  0  0  0  0  0  0
    2.9920   -0.9771    6.9789 H   0  0  0  0  0  0  0  0  0  0  0  0
    2.4385   -1.6987    5.4489 H   0  0  0  0  0  0  0  0  0  0  0  0
    3.4469   -0.2321    5.4277 H   0  0  0  0  0  0  0  0  0  0  0  0
   -0.0449   -0.0721    0.0128 H   0  0  0  0  0  0  0  0  0  0  0  0
    0.9631    1.3948   -0.0094 H   0  0  0  0  0  0  0  0  0  0  0  0
   -0.5924    1.3705   -0.8744 H   0  0  0  0  0  0  0  0  0  0  0  0
   -4.3018    4.1648    5.9750 O   0  5  0  0  0  0  0  0  0  0  0  0
  1  2  1  0  0  0  0
  1 28  1  0  0  0  0
  1 29  1  0  0  0  0
  1 30  1  0  0  0  0
  2  3  1  0  0  0  0
  2 31  1  0  0  0  0
  2 32  1  0  0  0  0
  3  4  1  0  0  0  0
  3  5  1  0  0  0  0
  3  6  1  0  0  0  0
  5 33  1  0  0  0  0
  5 34  1  0  0  0  0
  5 35  1  0  0  0  0
  6 11  2  0  0  0  0
  6  7  1  0  0  0  0
  7  8  2  0  0  0  0
  7 36  1  0  0  0  0
  8  9  1  0  0  0  0
  8 37  1  0  0  0  0
  9 15  2  0  0  0  0
  9 10  1  0  0  0  0
 10 11  1  0  0  0  0
 10 12  2  0  0  0  0
 11 38  1  0  0  0  0
 12 13  1  0  0  0  0
 12 26  1  0  0  0  0
 13 14  2  0  0  0  0
 13 39  1  0  0  0  0
 14 15  1  0  0  0  0
 14 16  1  0  0  0  0
 16 21  2  0  0  0  0
 16 17  1  0  0  0  0
 17 18  2  0  0  0  0
 17 40  1  0  0  0  0
 18 19  1  0  0  0  0
 18 24  1  0  0  0  0
 19 20  2  0  0  0  0
 19 41  1  0  0  0  0
 20 21  1  0  0  0  0
 20 42  1  0  0  0  0
 21 22  1  0  0  0  0
 22 23  1  0  0  0  0
 23 43  1  0  0  0  0
 23 44  1  0  0  0  0
 23 45  1  0  0  0  0
 24 25  1  0  0  0  0
 25 46  1  0  0  0  0
 25 47  1  0  0  0  0
 25 48  1  0  0  0  0
 26 27  2  0  0  0  0
 26 49  1  0  0  0  0
M  CHG  1  49  -1
M  END
$$$$
ZINC03757475
  -OEChem-08230709463D

 49 51  0     0  0  0  0  0  0999 V2000
   -9.6554    0.9827   11.8196 C   0  0  0  0  0  0  0  0  0  0  0  0
   -9.8220    2.0291   10.7159 C   0  0  0  0  0  0  0  0  0  0  0  0
   -8.9648    1.6393    9.5100 C   0  0  0  0  0  0  0  0  0  0  0  0
   -9.1314    2.6858    8.4063 C   0  0  0  0  0  0  0  0  0  0  0  0
   -8.2871    2.3018    7.2186 C   0  0  0  0  0  0  0  0  0  0  0  0
   -8.8306    1.4970    6.2196 C   0  0  0  0  0  0  0  0  0  0  0  0
   -8.0958    1.1322    5.1337 C   0  0  0  0  0  0  0  0  0  0  0  0
   -6.7645    1.5722    5.0122 C   0  0  0  0  0  0  0  0  0  0  0  0
   -6.2170    2.3911    6.0320 C   0  0  0  0  0  0  0  0  0  0  0  0
   -7.0011    2.7472    7.1345 C   0  0  0  0  0  0  0  0  0  0  0  0
   -4.8323    2.8452    5.8996 C   0  0  0  0  0  0  0  0  0  0  0  0
   -4.1343    2.4404    4.7703 C   0  0  0  0  0  0  0  0  0  0  0  0
   -4.7727    1.6282    3.8202 C   0  0  0  0  0  0  0  0  0  0  0  0
   -6.0220    1.2352    3.9567 N   0  0  0  0  0  0  0  0  0  0  0  0
   -4.0165    1.2031    2.6191 C   0  0  0  0  0  0  0  0  0  0  0  0
   -2.6940    1.6083    2.4450 C   0  0  0  0  0  0  0  0  0  0  0  0
   -1.9927    1.2077    1.3214 C   0  0  0  0  0  0  0  0  0  0  0  0
   -2.6051    0.4080    0.3655 C   0  0  0  0  0  0  0  0  0  0  0  0
   -3.9135   -0.0014    0.5346 C   0  0  0  0  0  0  0  0  0  0  0  0
   -4.6264    0.3932    1.6557 C   0  0  0  0  0  0  0  0  0  0  0  0
   -5.9150   -0.0054    1.8182 O   0  0  0  0  0  0  0  0  0  0  0  0
   -6.4727   -0.8314    0.7940 C   0  0  0  0  0  0  0  0  0  0  0  0
   -0.7028    1.6027    1.1501 O   0  0  0  0  0  0  0  0  0  0  0  0
   -0.0382    1.1529   -0.0323 C   0  0  0  0  0  0  0  0  0  0  0  0
   -4.2024    3.7008    6.9269 C   0  0  0  0  0  0  0  0  0  0  0  0
   -4.8641    4.1253    7.8528 O   0  0  0  0  0  0  0  0  0  0  0  0
   -9.9731    0.0086   11.4477 H   0  0  0  0  0  0  0  0  0  0  0  0
   -8.6084    0.9336   12.1188 H   0  0  0  0  0  0  0  0  0  0  0  0
  -10.2661    1.2604   12.6788 H   0  0  0  0  0  0  0  0  0  0  0  0
   -9.5043    3.0032   11.0879 H   0  0  0  0  0  0  0  0  0  0  0  0
  -10.8690    2.0782   10.4168 H   0  0  0  0  0  0  0  0  0  0  0  0
   -9.2825    0.6652    9.1381 H   0  0  0  0  0  0  0  0  0  0  0  0
   -7.9178    1.5902    9.8091 H   0  0  0  0  0  0  0  0  0  0  0  0
   -8.8137    3.6598    8.7783 H   0  0  0  0  0  0  0  0  0  0  0  0
  -10.1784    2.7348    8.1072 H   0  0  0  0  0  0  0  0  0  0  0  0
   -9.8517    1.1566    6.3087 H   0  0  0  0  0  0  0  0  0  0  0  0
   -8.5324    0.5075    4.3685 H   0  0  0  0  0  0  0  0  0  0  0  0
   -6.5902    3.3710    7.9146 H   0  0  0  0  0  0  0  0  0  0  0  0
   -3.1093    2.7474    4.6241 H   0  0  0  0  0  0  0  0  0  0  0  0
   -2.2179    2.2340    3.1854 H   0  0  0  0  0  0  0  0  0  0  0  0
   -2.0550    0.1016   -0.5120 H   0  0  0  0  0  0  0  0  0  0  0  0
   -4.3831   -0.6267   -0.2102 H   0  0  0  0  0  0  0  0  0  0  0  0
   -5.8906   -1.7491    0.7103 H   0  0  0  0  0  0  0  0  0  0  0  0
   -7.5041   -1.0771    1.0469 H   0  0  0  0  0  0  0  0  0  0  0  0
   -6.4487   -0.2979   -0.1562 H   0  0  0  0  0  0  0  0  0  0  0  0
   -0.0148    0.0632   -0.0437 H   0  0  0  0  0  0  0  0  0  0  0  0
    0.9813    1.5384   -0.0449 H   0  0  0  0  0  0  0  0  0  0  0  0
   -0.5740    1.5140   -0.9100 H   0  0  0  0  0  0  0  0  0  0  0  0
   -2.8943    4.0100    6.8365 O   0  5  0  0  0  0  0  0  0  0  0  0
  1  2  1  0  0  0  0
  1 27  1  0  0  0  0
  1 28  1  0  0  0  0
  1 29  1  0  0  0  0
  2  3  1  0  0  0  0
  2 30  1  0  0  0  0
  2 31  1  0  0  0  0
  3  4  1  0  0  0  0
  3 32  1  0  0  0  0
  3 33  1  0  0  0  0
  4  5  1  0  0  0  0
  4 34  1  0  0  0  0
  4 35  1  0  0  0  0
  5 10  2  0  0  0  0
  5  6  1  0  0  0  0
  6  7  2  0  0  0  0
  6 36  1  0  0  0  0
  7  8  1  0  0  0  0
  7 37  1  0  0  0  0
  8 14  2  0  0  0  0
  8  9  1  0  0  0  0
  9 10  1  0  0  0  0
  9 11  2  0  0  0  0
 10 38  1  0  0  0  0
 11 12  1  0  0  0  0
 11 25  1  0  0  0  0
 12 13  2  0  0  0  0
 12 39  1  0  0  0  0
 13 14  1  0  0  0  0
 13 15  1  0  0  0  0
 15 20  2  0  0  0  0
 15 16  1  0  0  0  0
 16 17  2  0  0  0  0
 16 40  1  0  0  0  0
 17 18  1  0  0  0  0
 17 23  1  0  0  0  0
 18 19  2  0  0  0  0
 18 41  1  0  0  0  0
 19 20  1  0  0  0  0
 19 42  1  0  0  0  0
 20 21  1  0  0  0  0
 21 22  1  0  0  0  0
 22 43  1  0  0  0  0
 22 44  1  0  0  0  0
 22 45  1  0  0  0  0
 23 24  1  0  0  0  0
 24 46  1  0  0  0  0
 24 47  1  0  0  0  0
 24 48  1  0  0  0  0
 25 26  2  0  0  0  0
 25 49  1  0  0  0  0
M  CHG  1  49  -1
M  END
$$$$
ZINC03781071
  -OEChem-08230709463D

 54 56  0     1  0  0  0  0  0999 V2000
    2.6974   11.8640    4.2477 C   0  0  0  0  0  0  0  0  0  0  0  0
    2.3407   11.6168    2.7805 C   0  0  0  0  0  0  0  0  0  0  0  0
    3.6013   11.7373    1.9219 C   0  0  0  0  0  0  0  0  0  0  0  0
    1.3118   12.6531    2.3242 C   0  0  0  0  0  0  0  0  0  0  0  0
    1.7612   10.2337    2.6306 C   0  0  0  0  0  0  0  0  0  0  0  0
    0.6108    9.8908    3.3186 C   0  0  0  0  0  0  0  0  0  0  0  0
    0.0751    8.6264    3.1858 C   0  0  0  0  0  0  0  0  0  0  0  0
    0.6965    7.6922    2.3556 C   0  0  0  0  0  0  0  0  0  0  0  0
    1.8599    8.0429    1.6689 C   0  0  0  0  0  0  0  0  0  0  0  0
    2.3821    9.3124    1.8060 C   0  0  0  0  0  0  0  0  0  0  0  0
    0.1282    6.3353    2.2089 C   0  0  0  0  0  0  0  0  0  0  0  0
   -0.9500    6.0711    2.7042 O   0  0  0  0  0  0  0  0  0  0  0  0
    0.8056    5.3912    1.5261 N   0  0  0  0  0  0  0  0  0  0  0  0
    2.0559    5.6031    0.7823 C   0  0  0  0  0  0  0  0  0  0  0  0
    2.4444    4.2523    0.1449 C   0  0  0  0  0  0  0  0  0  0  0  0
    1.0940    3.4898    0.0965 C   0  0  2  0  0  0  0  0  0  0  0  0
    0.5114    3.7808   -0.7776 H   0  0  0  0  0  0  0  0  0  0  0  0
    0.4160    3.9747    1.4022 C   0  0  0  0  0  0  0  0  0  0  0  0
    1.3175    1.9764    0.1239 C   0  0  0  0  0  0  0  0  0  0  0  0
    0.0545    1.3081    0.1099 O   0  0  0  0  0  0  0  0  0  0  0  0
    0.0751   -0.0486    0.1311 C   0  0  0  0  0  0  0  0  0  0  0  0
    1.2904   -0.7229    0.1590 C   0  0  0  0  0  0  0  0  0  0  0  0
    1.3158   -2.0992    0.1863 C   0  0  0  0  0  0  0  0  0  0  0  0
    0.1173   -2.8187    0.1743 C   0  0  0  0  0  0  0  0  0  0  0  0
   -1.1025   -2.1367    0.1404 C   0  0  0  0  0  0  0  0  0  0  0  0
   -1.1190   -0.7602    0.1190 C   0  0  0  0  0  0  0  0  0  0  0  0
    0.1398   -4.2931    0.1969 C   0  0  0  0  0  0  0  0  0  0  0  0
   -0.9029   -4.9168    0.1860 O   0  0  0  0  0  0  0  0  0  0  0  0
    3.4304   11.1257    4.5728 H   0  0  0  0  0  0  0  0  0  0  0  0
    3.1166   12.8643    4.3561 H   0  0  0  0  0  0  0  0  0  0  0  0
    1.7993   11.7781    4.8594 H   0  0  0  0  0  0  0  0  0  0  0  0
    3.3472   11.5611    0.8767 H   0  0  0  0  0  0  0  0  0  0  0  0
    4.0205   12.7376    2.0303 H   0  0  0  0  0  0  0  0  0  0  0  0
    4.3343   10.9990    2.2470 H   0  0  0  0  0  0  0  0  0  0  0  0
    0.4137   12.5672    2.9359 H   0  0  0  0  0  0  0  0  0  0  0  0
    1.7310   13.6534    2.4326 H   0  0  0  0  0  0  0  0  0  0  0  0
    1.0577   12.4770    1.2790 H   0  0  0  0  0  0  0  0  0  0  0  0
    0.1310   10.6146    3.9607 H   0  0  0  0  0  0  0  0  0  0  0  0
   -0.8229    8.3599    3.7234 H   0  0  0  0  0  0  0  0  0  0  0  0
    2.3480    7.3232    1.0283 H   0  0  0  0  0  0  0  0  0  0  0  0
    3.2798    9.5865    1.2718 H   0  0  0  0  0  0  0  0  0  0  0  0
    1.9018    6.3498    0.0034 H   0  0  0  0  0  0  0  0  0  0  0  0
    2.8406    5.9338    1.4627 H   0  0  0  0  0  0  0  0  0  0  0  0
    3.1637    3.7235    0.7702 H   0  0  0  0  0  0  0  0  0  0  0  0
    2.8402    4.3998   -0.8599 H   0  0  0  0  0  0  0  0  0  0  0  0
   -0.6674    3.8848    1.3231 H   0  0  0  0  0  0  0  0  0  0  0  0
    0.7822    3.4028    2.2548 H   0  0  0  0  0  0  0  0  0  0  0  0
    1.8617    1.7059    1.0288 H   0  0  0  0  0  0  0  0  0  0  0  0
    1.8959    1.6787   -0.7506 H   0  0  0  0  0  0  0  0  0  0  0  0
    2.2160   -0.1663    0.1638 H   0  0  0  0  0  0  0  0  0  0  0  0
    2.2603   -2.6223    0.2129 H   0  0  0  0  0  0  0  0  0  0  0  0
   -2.0307   -2.6889    0.1307 H   0  0  0  0  0  0  0  0  0  0  0  0
   -2.0609   -0.2325    0.0925 H   0  0  0  0  0  0  0  0  0  0  0  0
    1.3166   -4.9485    0.2295 O   0  5  0  0  0  0  0  0  0  0  0  0
  1  2  1  0  0  0  0
  1 29  1  0  0  0  0
  1 30  1  0  0  0  0
  1 31  1  0  0  0  0
  2  3  1  0  0  0  0
  2  4  1  0  0  0  0
  2  5  1  0  0  0  0
  3 32  1  0  0  0  0
  3 33  1  0  0  0  0
  3 34  1  0  0  0  0
  4 35  1  0  0  0  0
  4 36  1  0  0  0  0
  4 37  1  0  0  0  0
  5 10  2  0  0  0  0
  5  6  1  0  0  0  0
  6  7  2  0  0  0  0
  6 38  1  0  0  0  0
  7  8  1  0  0  0  0
  7 39  1  0  0  0  0
  8  9  2  0  0  0  0
  8 11  1  0  0  0  0
  9 10  1  0  0  0  0
  9 40  1  0  0  0  0
 10 41  1  0  0  0  0
 11 12  2  0  0  0  0
 11 13  1  0  0  0  0
 13 18  1  0  0  0  0
 13 14  1  0  0  0  0
 14 15  1  0  0  0  0
 14 42  1  0  0  0  0
 14 43  1  0  0  0  0
 15 16  1  0  0  0  0
 15 44  1  0  0  0  0
 15 45  1  0  0  0  0
 16 17  1  0  0  0  0
 16 18  1  0  0  0  0
 16 19  1  0  0  0  0
 18 46  1  0  0  0  0
 18 47  1  0  0  0  0
 19 20  1  0  0  0  0
 19 48  1  0  0  0  0
 19 49  1  0  0  0  0
 20 21  1  0  0  0  0
 21 26  2  0  0  0  0
 21 22  1  0  0  0  0
 22 23  2  0  0  0  0
 22 50  1  0  0  0  0
 23 24  1  0  0  0  0
 23 51  1  0  0  0  0
 24 25  2  0  0  0  0
 24 27  1  0  0  0  0
 25 26  1  0  0  0  0
 25 52  1  0  0  0  0
 26 53  1  0  0  0  0
 27 28  2  0  0  0  0
 27 54  1  0  0  0  0
M  CHG  1  54  -1
M  END
$$$$
ZINC03781112
  -OEChem-08230709463D

 54 58  0     0  0  0  0  0  0999 V2000
   -2.7560   -0.6536   -3.4968 C   0  0  0  0  0  0  0  0  0  0  0  0
   -1.5480    0.0530   -3.2077 O   0  0  0  0  0  0  0  0  0  0  0  0
   -1.1989    1.0501   -4.0590 C   0  0  0  0  0  0  0  0  0  0  0  0
   -2.0060    1.3417   -5.1535 C   0  0  0  0  0  0  0  0  0  0  0  0
   -1.6558    2.3522   -6.0196 C   0  0  0  0  0  0  0  0  0  0  0  0
   -0.4856    3.0863   -5.7981 C   0  0  0  0  0  0  0  0  0  0  0  0
    0.3204    2.7930   -4.6932 C   0  0  0  0  0  0  0  0  0  0  0  0
   -0.0350    1.7771   -3.8349 C   0  0  0  0  0  0  0  0  0  0  0  0
    0.8354    1.4565   -2.6473 C   0  0  0  0  0  0  0  0  0  0  0  0
    0.0297    1.6412   -1.3598 C   0  0  0  0  0  0  0  0  0  0  0  0
    0.9135    1.3157   -0.1540 C   0  0  0  0  0  0  0  0  0  0  0  0
    2.1215    2.2545   -0.1388 C   0  0  0  0  0  0  0  0  0  0  0  0
    2.9272    2.0697   -1.4263 C   0  0  0  0  0  0  0  0  0  0  0  0
    2.0435    2.3953   -2.6321 C   0  0  0  0  0  0  0  0  0  0  0  0
    3.4086    0.6207   -1.5232 C   0  0  0  0  0  0  0  0  0  0  0  0
    2.2006   -0.3181   -1.5384 C   0  0  0  0  0  0  0  0  0  0  0  0
    1.3949   -0.1334   -0.2509 C   0  0  0  0  0  0  0  0  0  0  0  0
    1.3168    0.0074   -2.7442 C   0  0  0  0  0  0  0  0  0  0  0  0
   -0.1062    4.1698   -6.7232 C   0  0  0  0  0  0  0  0  0  0  0  0
    0.4607    5.1588   -6.3010 O   0  0  0  0  0  0  0  0  0  0  0  0
   -0.4155    4.0534   -8.1655 C   0  0  0  0  0  0  0  0  0  0  0  0
   -0.9152    2.8543   -8.6779 C   0  0  0  0  0  0  0  0  0  0  0  0
   -1.2082    2.7477  -10.0199 C   0  0  0  0  0  0  0  0  0  0  0  0
   -0.9950    3.8349  -10.8696 C   0  0  0  0  0  0  0  0  0  0  0  0
   -0.4899    5.0321  -10.3584 C   0  0  0  0  0  0  0  0  0  0  0  0
   -0.2023    5.1407   -9.0153 C   0  0  0  0  0  0  0  0  0  0  0  0
   -1.3046    3.7187  -12.3113 C   0  0  0  0  0  0  0  0  0  0  0  0
   -1.1196    4.6645  -13.0503 O   0  0  0  0  0  0  0  0  0  0  0  0
   -3.5944    0.0428   -3.4917 H   0  0  0  0  0  0  0  0  0  0  0  0
   -2.6776   -1.1207   -4.4785 H   0  0  0  0  0  0  0  0  0  0  0  0
   -2.9173   -1.4220   -2.7406 H   0  0  0  0  0  0  0  0  0  0  0  0
   -2.9091    0.7745   -5.3238 H   0  0  0  0  0  0  0  0  0  0  0  0
   -2.2831    2.5779   -6.8693 H   0  0  0  0  0  0  0  0  0  0  0  0
    1.2223    3.3601   -4.5159 H   0  0  0  0  0  0  0  0  0  0  0  0
   -0.8309    0.9724   -1.3706 H   0  0  0  0  0  0  0  0  0  0  0  0
   -0.3132    2.6735   -1.2907 H   0  0  0  0  0  0  0  0  0  0  0  0
    0.3395    1.4473    0.7632 H   0  0  0  0  0  0  0  0  0  0  0  0
    1.7785    3.2868   -0.0697 H   0  0  0  0  0  0  0  0  0  0  0  0
    2.7511    2.0226    0.7203 H   0  0  0  0  0  0  0  0  0  0  0  0
    3.7878    2.7386   -1.4154 H   0  0  0  0  0  0  0  0  0  0  0  0
    1.7005    3.4276   -2.5630 H   0  0  0  0  0  0  0  0  0  0  0  0
    2.6175    2.2637   -3.5493 H   0  0  0  0  0  0  0  0  0  0  0  0
    4.0382    0.3888   -0.6641 H   0  0  0  0  0  0  0  0  0  0  0  0
    3.9826    0.4891   -2.4404 H   0  0  0  0  0  0  0  0  0  0  0  0
    2.5435   -1.3504   -1.6074 H   0  0  0  0  0  0  0  0  0  0  0  0
    2.0244   -0.3653    0.6082 H   0  0  0  0  0  0  0  0  0  0  0  0
    0.5342   -0.8022   -0.2617 H   0  0  0  0  0  0  0  0  0  0  0  0
    1.8908   -0.1242   -3.6614 H   0  0  0  0  0  0  0  0  0  0  0  0
    0.4562   -0.6614   -2.7550 H   0  0  0  0  0  0  0  0  0  0  0  0
   -1.0760    2.0119   -8.0214 H   0  0  0  0  0  0  0  0  0  0  0  0
   -1.5992    1.8219  -10.4154 H   0  0  0  0  0  0  0  0  0  0  0  0
   -0.3251    5.8730  -11.0156 H   0  0  0  0  0  0  0  0  0  0  0  0
    0.1876    6.0669   -8.6198 H   0  0  0  0  0  0  0  0  0  0  0  0
   -1.7918    2.5639  -12.8045 O   0  5  0  0  0  0  0  0  0  0  0  0
  1  2  1  0  0  0  0
  1 29  1  0  0  0  0
  1 30  1  0  0  0  0
  1 31  1  0  0  0  0
  2  3  1  0  0  0  0
  3  8  2  0  0  0  0
  3  4  1  0  0  0  0
  4  5  2  0  0  0  0
  4 32  1  0  0  0  0
  5  6  1  0  0  0  0
  5 33  1  0  0  0  0
  6  7  2  0  0  0  0
  6 19  1  0  0  0  0
  7  8  1  0  0  0  0
  7 34  1  0  0  0  0
  8  9  1  0  0  0  0
  9 14  1  0  0  0  0
  9 18  1  0  0  0  0
  9 10  1  0  0  0  0
 10 11  1  0  0  0  0
 10 35  1  0  0  0  0
 10 36  1  0  0  0  0
 11 17  1  0  0  0  0
 11 12  1  0  0  0  0
 11 37  1  0  0  0  0
 12 13  1  0  0  0  0
 12 38  1  0  0  0  0
 12 39  1  0  0  0  0
 13 14  1  0  0  0  0
 13 15  1  0  0  0  0
 13 40  1  0  0  0  0
 14 41  1  0  0  0  0
 14 42  1  0  0  0  0
 15 16  1  0  0  0  0
 15 43  1  0  0  0  0
 15 44  1  0  0  0  0
 16 17  1  0  0  0  0
 16 18  1  0  0  0  0
 16 45  1  0  0  0  0
 17 46  1  0  0  0  0
 17 47  1  0  0  0  0
 18 48  1  0  0  0  0
 18 49  1  0  0  0  0
 19 20  2  0  0  0  0
 19 21  1  0  0  0  0
 21 26  2  0  0  0  0
 21 22  1  0  0  0  0
 22 23  2  0  0  0  0
 22 50  1  0  0  0  0
 23 24  1  0  0  0  0
 23 51  1  0  0  0  0
 24 25  2  0  0  0  0
 24 27  1  0  0  0  0
 25 26  1  0  0  0  0
 25 52  1  0  0  0  0
 26 53  1  0  0  0  0
 27 28  2  0  0  0  0
 27 54  1  0  0  0  0
M  CHG  1  54  -1
M  END
$$$$
ZINC03782569
  -OEChem-08230709463D

 60 61  0     0  0  0  0  0  0999 V2000
    3.8219    2.4544   -2.4774 C   0  0  0  0  0  0  0  0  0  0  0  0
    2.7182    3.2260   -3.1537 C   0  0  0  0  0  0  0  0  0  0  0  0
    2.0604    4.2569   -2.4686 C   0  0  0  0  0  0  0  0  0  0  0  0
    1.0367    4.9756   -3.1082 C   0  0  0  0  0  0  0  0  0  0  0  0
    0.6805    4.6578   -4.4074 C   0  0  0  0  0  0  0  0  0  0  0  0
    1.3315    3.6328   -5.0762 C   0  0  0  0  0  0  0  0  0  0  0  0
    2.3495    2.9154   -4.4453 C   0  0  0  0  0  0  0  0  0  0  0  0
    2.9834    1.9108   -5.1088 O   0  0  0  0  0  0  0  0  0  0  0  0
    4.0727    2.2797   -5.9570 C   0  0  0  0  0  0  0  0  0  0  0  0
    0.9777    3.3254   -6.3508 O   0  0  0  0  0  0  0  0  0  0  0  0
    0.0396    2.2617   -6.5251 C   0  0  0  0  0  0  0  0  0  0  0  0
   -0.4173    5.4270   -5.0960 C   0  0  0  0  0  0  0  0  0  0  0  0
    0.3987    5.9794   -2.4540 O   0  0  0  0  0  0  0  0  0  0  0  0
    0.9267    7.2975   -2.6154 C   0  0  0  0  0  0  0  0  0  0  0  0
    2.4433    4.5878   -1.0921 C   0  0  0  0  0  0  0  0  0  0  0  0
    1.5427    4.4610   -0.0902 C   0  0  0  0  0  0  0  0  0  0  0  0
    0.1972    3.8386   -0.3609 C   0  0  0  0  0  0  0  0  0  0  0  0
    0.2443    2.3499   -0.0112 C   0  0  0  0  0  0  0  0  0  0  0  0
   -1.0844    1.6941   -0.3926 C   0  0  0  0  0  0  0  0  0  0  0  0
   -0.9982    0.1865   -0.1468 C   0  0  0  0  0  0  0  0  0  0  0  0
   -2.3269   -0.4693   -0.5282 C   0  0  0  0  0  0  0  0  0  0  0  0
   -2.2419   -1.9543   -0.2862 C   0  0  0  0  0  0  0  0  0  0  0  0
   -1.8089   -2.8059   -1.2913 C   0  0  0  0  0  0  0  0  0  0  0  0
   -1.7423   -4.1641   -1.0221 C   0  0  0  0  0  0  0  0  0  0  0  0
   -2.1165   -4.6223    0.2272 C   0  0  0  0  0  0  0  0  0  0  0  0
   -2.5283   -3.7837    1.1576 N   0  0  0  0  0  0  0  0  0  0  0  0
   -2.6000   -2.4851    0.9383 C   0  0  0  0  0  0  0  0  0  0  0  0
    1.8644    4.9129    1.2120 C   0  0  0  0  0  0  0  0  0  0  0  0
    2.9508    5.4154    1.4305 O   0  0  0  0  0  0  0  0  0  0  0  0
    3.3990    1.5933   -1.9600 H   0  0  0  0  0  0  0  0  0  0  0  0
    4.5378    2.1134   -3.2252 H   0  0  0  0  0  0  0  0  0  0  0  0
    4.3273    3.0985   -1.7577 H   0  0  0  0  0  0  0  0  0  0  0  0
    3.7336    3.0184   -6.6833 H   0  0  0  0  0  0  0  0  0  0  0  0
    4.8750    2.7048   -5.3539 H   0  0  0  0  0  0  0  0  0  0  0  0
    4.4403    1.3973   -6.4808 H   0  0  0  0  0  0  0  0  0  0  0  0
    0.4171    1.3613   -6.0406 H   0  0  0  0  0  0  0  0  0  0  0  0
   -0.9145    2.5419   -6.0785 H   0  0  0  0  0  0  0  0  0  0  0  0
   -0.0995    2.0707   -7.5892 H   0  0  0  0  0  0  0  0  0  0  0  0
    0.0107    6.2840   -5.6162 H   0  0  0  0  0  0  0  0  0  0  0  0
   -0.9192    4.7793   -5.8147 H   0  0  0  0  0  0  0  0  0  0  0  0
   -1.1374    5.7743   -4.3551 H   0  0  0  0  0  0  0  0  0  0  0  0
    0.3807    7.9888   -1.9735 H   0  0  0  0  0  0  0  0  0  0  0  0
    1.9815    7.3025   -2.3405 H   0  0  0  0  0  0  0  0  0  0  0  0
    0.8208    7.6065   -3.6553 H   0  0  0  0  0  0  0  0  0  0  0  0
    3.4441    4.9328   -0.8781 H   0  0  0  0  0  0  0  0  0  0  0  0
   -0.0521    3.9564   -1.4154 H   0  0  0  0  0  0  0  0  0  0  0  0
   -0.5603    4.3313    0.2488 H   0  0  0  0  0  0  0  0  0  0  0  0
    0.4129    2.2333    1.0594 H   0  0  0  0  0  0  0  0  0  0  0  0
    1.0558    1.8730   -0.5609 H   0  0  0  0  0  0  0  0  0  0  0  0
   -1.2916    1.8792   -1.4466 H   0  0  0  0  0  0  0  0  0  0  0  0
   -1.8853    2.1160    0.2146 H   0  0  0  0  0  0  0  0  0  0  0  0
   -0.1973   -0.2354   -0.7540 H   0  0  0  0  0  0  0  0  0  0  0  0
   -0.7910    0.0014    0.9072 H   0  0  0  0  0  0  0  0  0  0  0  0
   -3.1278   -0.0474    0.0790 H   0  0  0  0  0  0  0  0  0  0  0  0
   -2.5340   -0.2842   -1.5823 H   0  0  0  0  0  0  0  0  0  0  0  0
   -1.5265   -2.4197   -2.2596 H   0  0  0  0  0  0  0  0  0  0  0  0
   -1.4062   -4.8560   -1.7802 H   0  0  0  0  0  0  0  0  0  0  0  0
   -2.0715   -5.6794    0.4436 H   0  0  0  0  0  0  0  0  0  0  0  0
   -2.9421   -1.8291    1.7250 H   0  0  0  0  0  0  0  0  0  0  0  0
    0.9661    4.7864    2.2112 O   0  5  0  0  0  0  0  0  0  0  0  0
  1  2  1  0  0  0  0
  1 30  1  0  0  0  0
  1 31  1  0  0  0  0
  1 32  1  0  0  0  0
  2  7  2  0  0  0  0
  2  3  1  0  0  0  0
  3  4  2  0  0  0  0
  3 15  1  0  0  0  0
  4  5  1  0  0  0  0
  4 13  1  0  0  0  0
  5  6  2  0  0  0  0
  5 12  1  0  0  0  0
  6  7  1  0  0  0  0
  6 10  1  0  0  0  0
  7  8  1  0  0  0  0
  8  9  1  0  0  0  0
  9 33  1  0  0  0  0
  9 34  1  0  0  0  0
  9 35  1  0  0  0  0
 10 11  1  0  0  0  0
 11 36  1  0  0  0  0
 11 37  1  0  0  0  0
 11 38  1  0  0  0  0
 12 39  1  0  0  0  0
 12 40  1  0  0  0  0
 12 41  1  0  0  0  0
 13 14  1  0  0  0  0
 14 42  1  0  0  0  0
 14 43  1  0  0  0  0
 14 44  1  0  0  0  0
 15 16  2  0  0  0  0
 15 45  1  0  0  0  0
 16 17  1  0  0  0  0
 16 28  1  0  0  0  0
 17 18  1  0  0  0  0
 17 46  1  0  0  0  0
 17 47  1  0  0  0  0
 18 19  1  0  0  0  0
 18 48  1  0  0  0  0
 18 49  1  0  0  0  0
 19 20  1  0  0  0  0
 19 50  1  0  0  0  0
 19 51  1  0  0  0  0
 20 21  1  0  0  0  0
 20 52  1  0  0  0  0
 20 53  1  0  0  0  0
 21 22  1  0  0  0  0
 21 54  1  0  0  0  0
 21 55  1  0  0  0  0
 22 27  2  0  0  0  0
 22 23  1  0  0  0  0
 23 24  2  0  0  0  0
 23 56  1  0  0  0  0
 24 25  1  0  0  0  0
 24 57  1  0  0  0  0
 25 26  2  0  0  0  0
 25 58  1  0  0  0  0
 26 27  1  0  0  0  0
 27 59  1  0  0  0  0
 28 29  2  0  0  0  0
 28 60  1  0  0  0  0
M  CHG  1  60  -1
M  END
$$$$
ZINC03783282
  -OEChem-08230709463D

 56 58  0     0  0  0  0  0  0999 V2000
    4.3996    7.2496   -5.4845 C   0  0  0  0  0  0  0  0  0  0  0  0
    3.6486    5.9173   -5.5283 C   0  0  0  0  0  0  0  0  0  0  0  0
    4.2475    4.9601   -4.4958 C   0  0  0  0  0  0  0  0  0  0  0  0
    3.4966    3.6278   -4.5396 C   0  0  0  0  0  0  0  0  0  0  0  0
    4.0865    2.6850   -3.5227 C   0  0  0  0  0  0  0  0  0  0  0  0
    5.0858    1.8324   -3.7455 N   0  0  0  0  0  0  0  0  0  0  0  0
    5.3544    1.1676   -2.6511 C   0  0  0  0  0  0  0  0  0  0  0  0
    4.5101    1.5850   -1.6918 N   0  0  0  0  0  0  0  0  0  0  0  0
    3.7002    2.5706   -2.2791 N   0  0  0  0  0  0  0  0  0  0  0  0
    4.4510    1.1104   -0.3070 C   0  0  0  0  0  0  0  0  0  0  0  0
    5.2543    2.0316    0.5745 C   0  0  0  0  0  0  0  0  0  0  0  0
    4.6409    3.0980    1.2164 C   0  0  0  0  0  0  0  0  0  0  0  0
    5.4143    3.9206    2.0172 C   0  0  0  0  0  0  0  0  0  0  0  0
    6.7753    3.6506    2.1504 C   0  0  0  0  0  0  0  0  0  0  0  0
    7.3232    2.6198    1.5194 N   0  0  0  0  0  0  0  0  0  0  0  0
    6.6100    1.8219    0.7517 C   0  0  0  0  0  0  0  0  0  0  0  0
    7.6173    4.5217    3.0041 C   0  0  0  0  0  0  0  0  0  0  0  0
    8.0930    5.7340    2.5133 C   0  0  0  0  0  0  0  0  0  0  0  0
    8.8772    6.5427    3.3118 C   0  0  0  0  0  0  0  0  0  0  0  0
    9.1961    6.1563    4.6030 C   0  0  0  0  0  0  0  0  0  0  0  0
    8.7336    4.9584    5.1077 C   0  0  0  0  0  0  0  0  0  0  0  0
    7.9356    4.1308    4.3173 C   0  0  0  0  0  0  0  0  0  0  0  0
    7.4334    2.8511    4.8535 C   0  0  0  0  0  0  0  0  0  0  0  0
    6.6550    2.1833    4.2023 O   0  0  0  0  0  0  0  0  0  0  0  0
    6.4216    0.1153   -2.4942 C   0  0  0  0  0  0  0  0  0  0  0  0
    5.8125   -1.2681   -2.7316 C   0  0  0  0  0  0  0  0  0  0  0  0
    6.8654   -2.3432   -2.4552 C   0  0  0  0  0  0  0  0  0  0  0  0
    6.2563   -3.7265   -2.6926 C   0  0  0  0  0  0  0  0  0  0  0  0
    3.9729    7.9316   -6.2200 H   0  0  0  0  0  0  0  0  0  0  0  0
    4.3088    7.6853   -4.4895 H   0  0  0  0  0  0  0  0  0  0  0  0
    5.4520    7.0812   -5.7127 H   0  0  0  0  0  0  0  0  0  0  0  0
    3.7394    5.4816   -6.5233 H   0  0  0  0  0  0  0  0  0  0  0  0
    2.5962    6.0858   -5.3000 H   0  0  0  0  0  0  0  0  0  0  0  0
    4.1568    5.3958   -3.5008 H   0  0  0  0  0  0  0  0  0  0  0  0
    5.3000    4.7917   -4.7241 H   0  0  0  0  0  0  0  0  0  0  0  0
    3.5873    3.1921   -5.5346 H   0  0  0  0  0  0  0  0  0  0  0  0
    2.4441    3.7963   -4.3113 H   0  0  0  0  0  0  0  0  0  0  0  0
    4.8627    0.1028   -0.2504 H   0  0  0  0  0  0  0  0  0  0  0  0
    3.4141    1.0987    0.0290 H   0  0  0  0  0  0  0  0  0  0  0  0
    3.5839    3.2824    1.0936 H   0  0  0  0  0  0  0  0  0  0  0  0
    4.9695    4.7594    2.5318 H   0  0  0  0  0  0  0  0  0  0  0  0
    7.0902    0.9925    0.2538 H   0  0  0  0  0  0  0  0  0  0  0  0
    7.8490    6.0422    1.5074 H   0  0  0  0  0  0  0  0  0  0  0  0
    9.2440    7.4828    2.9272 H   0  0  0  0  0  0  0  0  0  0  0  0
    9.8102    6.7968    5.2187 H   0  0  0  0  0  0  0  0  0  0  0  0
    8.9861    4.6633    6.1155 H   0  0  0  0  0  0  0  0  0  0  0  0
    7.2156    0.2920   -3.2198 H   0  0  0  0  0  0  0  0  0  0  0  0
    6.8334    0.1628   -1.4861 H   0  0  0  0  0  0  0  0  0  0  0  0
    4.9634   -1.4108   -2.0632 H   0  0  0  0  0  0  0  0  0  0  0  0
    5.4775   -1.3450   -3.7660 H   0  0  0  0  0  0  0  0  0  0  0  0
    7.7145   -2.2005   -3.1237 H   0  0  0  0  0  0  0  0  0  0  0  0
    7.2004   -2.2663   -1.4208 H   0  0  0  0  0  0  0  0  0  0  0  0
    7.0065   -4.4924   -2.4957 H   0  0  0  0  0  0  0  0  0  0  0  0
    5.4072   -3.8692   -2.0242 H   0  0  0  0  0  0  0  0  0  0  0  0
    5.9214   -3.8034   -3.7270 H   0  0  0  0  0  0  0  0  0  0  0  0
    7.8381    2.4233    6.0654 O   0  5  0  0  0  0  0  0  0  0  0  0
  1  2  1  0  0  0  0
  1 29  1  0  0  0  0
  1 30  1  0  0  0  0
  1 31  1  0  0  0  0
  2  3  1  0  0  0  0
  2 32  1  0  0  0  0
  2 33  1  0  0  0  0
  3  4  1  0  0  0  0
  3 34  1  0  0  0  0
  3 35  1  0  0  0  0
  4  5  1  0  0  0  0
  4 36  1  0  0  0  0
  4 37  1  0  0  0  0
  5  9  2  0  0  0  0
  5  6  1  0  0  0  0
  6  7  2  0  0  0  0
  7  8  1  0  0  0  0
  7 25  1  0  0  0  0
  8  9  1  0  0  0  0
  8 10  1  0  0  0  0
 10 11  1  0  0  0  0
 10 38  1  0  0  0  0
 10 39  1  0  0  0  0
 11 16  2  0  0  0  0
 11 12  1  0  0  0  0
 12 13  2  0  0  0  0
 12 40  1  0  0  0  0
 13 14  1  0  0  0  0
 13 41  1  0  0  0  0
 14 15  2  0  0  0  0
 14 17  1  0  0  0  0
 15 16  1  0  0  0  0
 16 42  1  0  0  0  0
 17 22  2  0  0  0  0
 17 18  1  0  0  0  0
 18 19  2  0  0  0  0
 18 43  1  0  0  0  0
 19 20  1  0  0  0  0
 19 44  1  0  0  0  0
 20 21  2  0  0  0  0
 20 45  1  0  0  0  0
 21 22  1  0  0  0  0
 21 46  1  0  0  0  0
 22 23  1  0  0  0  0
 23 24  2  0  0  0  0
 23 56  1  0  0  0  0
 25 26  1  0  0  0  0
 25 47  1  0  0  0  0
 25 48  1  0  0  0  0
 26 27  1  0  0  0  0
 26 49  1  0  0  0  0
 26 50  1  0  0  0  0
 27 28  1  0  0  0  0
 27 51  1  0  0  0  0
 27 52  1  0  0  0  0
 28 53  1  0  0  0  0
 28 54  1  0  0  0  0
 28 55  1  0  0  0  0
M  CHG  1  56  -1
M  END
$$$$
ZINC03784184
  -OEChem-08230709463D

 56 60  0     0  0  0  0  0  0999 V2000
   -4.0893    0.5315   -3.3185 C   0  0  0  0  0  0  0  0  0  0  0  0
   -2.7288    0.8656   -3.0366 O   0  0  0  0  0  0  0  0  0  0  0  0
   -2.0934    1.6665   -3.9291 C   0  0  0  0  0  0  0  0  0  0  0  0
   -2.7692    2.1221   -5.0554 C   0  0  0  0  0  0  0  0  0  0  0  0
   -2.1283    2.9351   -5.9631 C   0  0  0  0  0  0  0  0  0  0  0  0
   -0.7963    3.3019   -5.7512 C   0  0  0  0  0  0  0  0  0  0  0  0
   -0.1224    2.8464   -4.6150 C   0  0  0  0  0  0  0  0  0  0  0  0
   -0.7691    2.0293   -3.7145 C   0  0  0  0  0  0  0  0  0  0  0  0
   -0.0416    1.5329   -2.4917 C   0  0  0  0  0  0  0  0  0  0  0  0
   -0.7668    2.0181   -1.2348 C   0  0  0  0  0  0  0  0  0  0  0  0
   -0.0282    1.5141    0.0067 C   0  0  0  0  0  0  0  0  0  0  0  0
    1.4032    2.0546    0.0031 C   0  0  0  0  0  0  0  0  0  0  0  0
    2.1283    1.5694   -1.2538 C   0  0  0  0  0  0  0  0  0  0  0  0
    1.3897    2.0734   -2.4953 C   0  0  0  0  0  0  0  0  0  0  0  0
    2.1607    0.0398   -1.2654 C   0  0  0  0  0  0  0  0  0  0  0  0
    0.7294   -0.5007   -1.2618 C   0  0  0  0  0  0  0  0  0  0  0  0
    0.0042   -0.0155   -0.0049 C   0  0  0  0  0  0  0  0  0  0  0  0
   -0.0092    0.0033   -2.5033 C   0  0  0  0  0  0  0  0  0  0  0  0
   -0.1058    4.1735   -6.7212 C   0  0  0  0  0  0  0  0  0  0  0  0
    1.0529    4.4916   -6.5353 O   0  0  0  0  0  0  0  0  0  0  0  0
   -0.7594    4.6169   -7.8132 N   0  0  0  0  0  0  0  0  0  0  0  0
   -0.1398    5.5157   -8.6788 C   0  0  0  0  0  0  0  0  0  0  0  0
   -0.8927    6.4981   -9.3152 C   0  0  0  0  0  0  0  0  0  0  0  0
   -0.2831    7.3907  -10.1672 C   0  0  0  0  0  0  0  0  0  0  0  0
    1.0925    7.3029  -10.4014 C   0  0  0  0  0  0  0  0  0  0  0  0
    1.8450    6.3114   -9.7645 C   0  0  0  0  0  0  0  0  0  0  0  0
    1.2297    5.4254   -8.9097 C   0  0  0  0  0  0  0  0  0  0  0  0
    1.7483    8.2542  -11.3175 C   0  0  0  0  0  0  0  0  0  0  0  0
    2.9439    8.1769  -11.5197 O   0  0  0  0  0  0  0  0  0  0  0  0
   -4.1447    0.0080   -4.2729 H   0  0  0  0  0  0  0  0  0  0  0  0
   -4.4767   -0.1116   -2.5283 H   0  0  0  0  0  0  0  0  0  0  0  0
   -4.6844    1.4434   -3.3692 H   0  0  0  0  0  0  0  0  0  0  0  0
   -3.7984    1.8382   -5.2184 H   0  0  0  0  0  0  0  0  0  0  0  0
   -2.6540    3.2886   -6.8378 H   0  0  0  0  0  0  0  0  0  0  0  0
    0.9052    3.1318   -4.4450 H   0  0  0  0  0  0  0  0  0  0  0  0
   -1.7865    1.6331   -1.2322 H   0  0  0  0  0  0  0  0  0  0  0  0
   -0.7898    3.1078   -1.2265 H   0  0  0  0  0  0  0  0  0  0  0  0
   -0.5448    1.8598    0.9021 H   0  0  0  0  0  0  0  0  0  0  0  0
    1.3801    3.1443    0.0114 H   0  0  0  0  0  0  0  0  0  0  0  0
    1.9294    1.6956    0.8876 H   0  0  0  0  0  0  0  0  0  0  0  0
    3.1481    1.9545   -1.2563 H   0  0  0  0  0  0  0  0  0  0  0  0
    1.3667    3.1631   -2.4870 H   0  0  0  0  0  0  0  0  0  0  0  0
    1.9064    1.7277   -3.3907 H   0  0  0  0  0  0  0  0  0  0  0  0
    2.6869   -0.3192   -0.3809 H   0  0  0  0  0  0  0  0  0  0  0  0
    2.6774   -0.3058   -2.1608 H   0  0  0  0  0  0  0  0  0  0  0  0
    0.7525   -1.5904   -1.2701 H   0  0  0  0  0  0  0  0  0  0  0  0
    0.5304   -0.3745    0.8795 H   0  0  0  0  0  0  0  0  0  0  0  0
   -1.0155   -0.4005   -0.0024 H   0  0  0  0  0  0  0  0  0  0  0  0
    0.5074   -0.3424   -3.3987 H   0  0  0  0  0  0  0  0  0  0  0  0
   -1.0289   -0.3817   -2.5007 H   0  0  0  0  0  0  0  0  0  0  0  0
   -1.6612    4.3103   -7.9965 H   0  0  0  0  0  0  0  0  0  0  0  0
   -1.9560    6.5624   -9.1372 H   0  0  0  0  0  0  0  0  0  0  0  0
   -0.8673    8.1553  -10.6574 H   0  0  0  0  0  0  0  0  0  0  0  0
    2.9078    6.2410   -9.9429 H   0  0  0  0  0  0  0  0  0  0  0  0
    1.8104    4.6595   -8.4171 H   0  0  0  0  0  0  0  0  0  0  0  0
    1.0216    9.2092  -11.9304 O   0  5  0  0  0  0  0  0  0  0  0  0
  1  2  1  0  0  0  0
  1 30  1  0  0  0  0
  1 31  1  0  0  0  0
  1 32  1  0  0  0  0
  2  3  1  0  0  0  0
  3  8  2  0  0  0  0
  3  4  1  0  0  0  0
  4  5  2  0  0  0  0
  4 33  1  0  0  0  0
  5  6  1  0  0  0  0
  5 34  1  0  0  0  0
  6  7  2  0  0  0  0
  6 19  1  0  0  0  0
  7  8  1  0  0  0  0
  7 35  1  0  0  0  0
  8  9  1  0  0  0  0
  9 14  1  0  0  0  0
  9 18  1  0  0  0  0
  9 10  1  0  0  0  0
 10 11  1  0  0  0  0
 10 36  1  0  0  0  0
 10 37  1  0  0  0  0
 11 17  1  0  0  0  0
 11 12  1  0  0  0  0
 11 38  1  0  0  0  0
 12 13  1  0  0  0  0
 12 39  1  0  0  0  0
 12 40  1  0  0  0  0
 13 14  1  0  0  0  0
 13 15  1  0  0  0  0
 13 41  1  0  0  0  0
 14 42  1  0  0  0  0
 14 43  1  0  0  0  0
 15 16  1  0  0  0  0
 15 44  1  0  0  0  0
 15 45  1  0  0  0  0
 16 17  1  0  0  0  0
 16 18  1  0  0  0  0
 16 46  1  0  0  0  0
 17 47  1  0  0  0  0
 17 48  1  0  0  0  0
 18 49  1  0  0  0  0
 18 50  1  0  0  0  0
 19 20  2  0  0  0  0
 19 21  1  0  0  0  0
 21 22  1  0  0  0  0
 21 51  1  0  0  0  0
 22 27  2  0  0  0  0
 22 23  1  0  0  0  0
 23 24  2  0  0  0  0
 23 52  1  0  0  0  0
 24 25  1  0  0  0  0
 24 53  1  0  0  0  0
 25 26  2  0  0  0  0
 25 28  1  0  0  0  0
 26 27  1  0  0  0  0
 26 54  1  0  0  0  0
 27 55  1  0  0  0  0
 28 29  2  0  0  0  0
 28 56  1  0  0  0  0
M  CHG  1  56  -1
M  END
$$$$
ZINC03784314
  -OEChem-08230709463D

 56 58  0     0  0  0  0  0  0999 V2000
   -4.2607   13.4436   10.2259 C   0  0  0  0  0  0  0  0  0  0  0  0
   -5.3121   13.0904    9.1719 C   0  0  0  0  0  0  0  0  0  0  0  0
   -6.0066   14.3681    8.6963 C   0  0  0  0  0  0  0  0  0  0  0  0
   -4.6436   12.4165    8.0015 C   0  0  0  0  0  0  0  0  0  0  0  0
   -4.0900   13.1655    7.0091 C   0  0  0  0  0  0  0  0  0  0  0  0
   -3.4623   11.8804    5.9353 S   0  0  0  0  0  0  0  0  0  0  0  0
   -4.0114   10.4897    6.9158 C   0  0  0  0  0  0  0  0  0  0  0  0
   -4.5948   11.1082    7.9377 N   0  0  0  0  0  0  0  0  0  0  0  0
   -3.8546    9.0538    6.6639 C   0  0  0  0  0  0  0  0  0  0  0  0
   -3.2229    8.6303    5.5531 C   0  0  0  0  0  0  0  0  0  0  0  0
   -3.0654    7.1878    5.3000 C   0  0  0  0  0  0  0  0  0  0  0  0
   -3.5712    6.2561    6.2129 C   0  0  0  0  0  0  0  0  0  0  0  0
   -3.4236    4.9045    5.9765 C   0  0  0  0  0  0  0  0  0  0  0  0
   -2.7817    4.4619    4.8363 C   0  0  0  0  0  0  0  0  0  0  0  0
   -2.2665    5.3805    3.9189 C   0  0  0  0  0  0  0  0  0  0  0  0
   -2.4110    6.7467    4.1494 C   0  0  0  0  0  0  0  0  0  0  0  0
   -1.5744    4.9036    2.7023 C   0  0  0  0  0  0  0  0  0  0  0  0
   -1.1308    5.7040    1.9022 O   0  0  0  0  0  0  0  0  0  0  0  0
   -1.4353    3.5815    2.4806 N   0  0  0  0  0  0  0  0  0  0  0  0
   -0.7496    3.1091    1.2752 C   0  0  0  0  0  0  0  0  0  0  0  0
   -0.7288    1.5792    1.2668 C   0  0  0  0  0  0  0  0  0  0  0  0
   -0.0127    1.0858    0.0080 C   0  0  0  0  0  0  0  0  0  0  0  0
   -0.7527    1.5927   -1.2315 C   0  0  0  0  0  0  0  0  0  0  0  0
   -2.1881    1.0631   -1.2207 C   0  0  0  0  0  0  0  0  0  0  0  0
   -2.9042    1.5565    0.0381 C   0  0  0  0  0  0  0  0  0  0  0  0
   -2.1642    1.0497    1.2777 C   0  0  0  0  0  0  0  0  0  0  0  0
    0.0000    1.0800    2.4877 C   0  0  0  0  0  0  0  0  0  0  0  0
    0.9906    0.3994    2.3637 O   0  0  0  0  0  0  0  0  0  0  0  0
   -3.7660   12.5333   10.5647 H   0  0  0  0  0  0  0  0  0  0  0  0
   -3.5228   14.1179    9.7912 H   0  0  0  0  0  0  0  0  0  0  0  0
   -4.7443   13.9310   11.0724 H   0  0  0  0  0  0  0  0  0  0  0  0
   -6.0500   12.4161    9.6066 H   0  0  0  0  0  0  0  0  0  0  0  0
   -6.7556   14.1165    7.9455 H   0  0  0  0  0  0  0  0  0  0  0  0
   -6.4902   14.8555    9.5429 H   0  0  0  0  0  0  0  0  0  0  0  0
   -5.2687   15.0424    8.2617 H   0  0  0  0  0  0  0  0  0  0  0  0
   -4.0398   14.2390    6.9019 H   0  0  0  0  0  0  0  0  0  0  0  0
   -4.2460    8.3358    7.3694 H   0  0  0  0  0  0  0  0  0  0  0  0
   -2.8315    9.3482    4.8476 H   0  0  0  0  0  0  0  0  0  0  0  0
   -4.0778    6.5952    7.1044 H   0  0  0  0  0  0  0  0  0  0  0  0
   -3.8161    4.1892    6.6841 H   0  0  0  0  0  0  0  0  0  0  0  0
   -2.6739    3.4026    4.6559 H   0  0  0  0  0  0  0  0  0  0  0  0
   -2.0186    7.4610    3.4407 H   0  0  0  0  0  0  0  0  0  0  0  0
   -1.7893    2.9428    3.1190 H   0  0  0  0  0  0  0  0  0  0  0  0
    0.2730    3.4864    1.2675 H   0  0  0  0  0  0  0  0  0  0  0  0
   -1.2768    3.4701    0.3922 H   0  0  0  0  0  0  0  0  0  0  0  0
    0.0021   -0.0041    0.0020 H   0  0  0  0  0  0  0  0  0  0  0  0
    1.0099    1.4631    0.0003 H   0  0  0  0  0  0  0  0  0  0  0  0
   -0.7675    2.6825   -1.2255 H   0  0  0  0  0  0  0  0  0  0  0  0
   -0.2425    1.2411   -2.1283 H   0  0  0  0  0  0  0  0  0  0  0  0
   -2.7153    1.4241   -2.1037 H   0  0  0  0  0  0  0  0  0  0  0  0
   -2.1733   -0.0268   -1.2266 H   0  0  0  0  0  0  0  0  0  0  0  0
   -2.9190    2.6464    0.0441 H   0  0  0  0  0  0  0  0  0  0  0  0
   -3.9268    1.1792    0.0459 H   0  0  0  0  0  0  0  0  0  0  0  0
   -2.6744    1.4012    2.1745 H   0  0  0  0  0  0  0  0  0  0  0  0
   -2.1494   -0.0402    1.2717 H   0  0  0  0  0  0  0  0  0  0  0  0
   -0.4513    1.3915    3.7129 O   0  5  0  0  0  0  0  0  0  0  0  0
  1  2  1  0  0  0  0
  1 29  1  0  0  0  0
  1 30  1  0  0  0  0
  1 31  1  0  0  0  0
  2  3  1  0  0  0  0
  2  4  1  0  0  0  0
  2 32  1  0  0  0  0
  3 33  1  0  0  0  0
  3 34  1  0  0  0  0
  3 35  1  0  0  0  0
  4  8  1  0  0  0  0
  4  5  2  0  0  0  0
  5  6  1  0  0  0  0
  5 36  1  0  0  0  0
  6  7  1  0  0  0  0
  7  8  2  0  0  0  0
  7  9  1  0  0  0  0
  9 10  2  0  0  0  0
  9 37  1  0  0  0  0
 10 11  1  0  0  0  0
 10 38  1  0  0  0  0
 11 16  2  0  0  0  0
 11 12  1  0  0  0  0
 12 13  2  0  0  0  0
 12 39  1  0  0  0  0
 13 14  1  0  0  0  0
 13 40  1  0  0  0  0
 14 15  2  0  0  0  0
 14 41  1  0  0  0  0
 15 16  1  0  0  0  0
 15 17  1  0  0  0  0
 16 42  1  0  0  0  0
 17 18  2  0  0  0  0
 17 19  1  0  0  0  0
 19 20  1  0  0  0  0
 19 43  1  0  0  0  0
 20 21  1  0  0  0  0
 20 44  1  0  0  0  0
 20 45  1  0  0  0  0
 21 26  1  0  0  0  0
 21 22  1  0  0  0  0
 21 27  1  0  0  0  0
 22 23  1  0  0  0  0
 22 46  1  0  0  0  0
 22 47  1  0  0  0  0
 23 24  1  0  0  0  0
 23 48  1  0  0  0  0
 23 49  1  0  0  0  0
 24 25  1  0  0  0  0
 24 50  1  0  0  0  0
 24 51  1  0  0  0  0
 25 26  1  0  0  0  0
 25 52  1  0  0  0  0
 25 53  1  0  0  0  0
 26 54  1  0  0  0  0
 26 55  1  0  0  0  0
 27 28  2  0  0  0  0
 27 56  1  0  0  0  0
M  CHG  1  56  -1
M  END
$$$$
ZINC03784477
  -OEChem-08230709463D

 51 53  0     1  0  0  0  0  0999 V2000
    6.9927    9.6167   -0.9372 C   0  0  0  0  0  0  0  0  0  0  0  0
    5.5460   10.0444   -0.6819 C   0  0  0  0  0  0  0  0  0  0  0  0
    5.1055   11.0275   -1.7683 C   0  0  0  0  0  0  0  0  0  0  0  0
    5.4481   10.7199    0.6874 C   0  0  0  0  0  0  0  0  0  0  0  0
    4.6515    8.8319   -0.7090 C   0  0  0  0  0  0  0  0  0  0  0  0
    4.8594    7.8009    0.1888 C   0  0  0  0  0  0  0  0  0  0  0  0
    4.0414    6.6884    0.1666 C   0  0  0  0  0  0  0  0  0  0  0  0
    3.0091    6.6058   -0.7587 C   0  0  0  0  0  0  0  0  0  0  0  0
    2.8065    7.6403   -1.6628 C   0  0  0  0  0  0  0  0  0  0  0  0
    3.6248    8.7525   -1.6319 C   0  0  0  0  0  0  0  0  0  0  0  0
    2.1785    5.4800   -0.7839 N   0  0  0  0  0  0  0  0  0  0  0  0
    2.3828    4.2816    0.0395 C   0  0  0  0  0  0  0  0  0  0  0  0
    1.0355    3.5265    0.0082 C   0  0  1  0  0  0  0  0  0  0  0  0
    0.4077    3.8137    0.8517 H   0  0  0  0  0  0  0  0  0  0  0  0
    0.4283    4.0181   -1.3261 C   0  0  0  0  0  0  0  0  0  0  0  0
    1.0909    5.3571   -1.5642 C   0  0  0  0  0  0  0  0  0  0  0  0
    0.6976    6.1978   -2.3449 O   0  0  0  0  0  0  0  0  0  0  0  0
    1.2567    2.0127   -0.0156 C   0  0  0  0  0  0  0  0  0  0  0  0
   -0.0073    1.3463    0.0007 O   0  0  0  0  0  0  0  0  0  0  0  0
    0.0112   -0.0104   -0.0171 C   0  0  0  0  0  0  0  0  0  0  0  0
    1.2253   -0.6865   -0.0556 C   0  0  0  0  0  0  0  0  0  0  0  0
    1.2488   -2.0631   -0.0681 C   0  0  0  0  0  0  0  0  0  0  0  0
    0.0492   -2.7807   -0.0536 C   0  0  0  0  0  0  0  0  0  0  0  0
   -1.1696   -2.0968   -0.0207 C   0  0  0  0  0  0  0  0  0  0  0  0
   -1.1839   -0.7202   -0.0027 C   0  0  0  0  0  0  0  0  0  0  0  0
    0.0694   -4.2551   -0.0735 C   0  0  0  0  0  0  0  0  0  0  0  0
   -0.9743   -4.8772   -0.0613 O   0  0  0  0  0  0  0  0  0  0  0  0
    7.0625    9.1354   -1.9127 H   0  0  0  0  0  0  0  0  0  0  0  0
    7.6397   10.4937   -0.9176 H   0  0  0  0  0  0  0  0  0  0  0  0
    7.3065    8.9163   -0.1633 H   0  0  0  0  0  0  0  0  0  0  0  0
    4.0749   11.3322   -1.5864 H   0  0  0  0  0  0  0  0  0  0  0  0
    5.7526   11.9045   -1.7487 H   0  0  0  0  0  0  0  0  0  0  0  0
    5.1753   10.5462   -2.7438 H   0  0  0  0  0  0  0  0  0  0  0  0
    5.7619   10.0195    1.4614 H   0  0  0  0  0  0  0  0  0  0  0  0
    6.0951   11.5969    0.7070 H   0  0  0  0  0  0  0  0  0  0  0  0
    4.4175   11.0246    0.8693 H   0  0  0  0  0  0  0  0  0  0  0  0
    5.6626    7.8656    0.9079 H   0  0  0  0  0  0  0  0  0  0  0  0
    4.2045    5.8833    0.8678 H   0  0  0  0  0  0  0  0  0  0  0  0
    2.0074    7.5770   -2.3865 H   0  0  0  0  0  0  0  0  0  0  0  0
    3.4652    9.5592   -2.3320 H   0  0  0  0  0  0  0  0  0  0  0  0
    2.6333    4.5639    1.0620 H   0  0  0  0  0  0  0  0  0  0  0  0
    3.1724    3.6621   -0.3858 H   0  0  0  0  0  0  0  0  0  0  0  0
    0.6681    3.3251   -2.1326 H   0  0  0  0  0  0  0  0  0  0  0  0
   -0.6514    4.1356   -1.2337 H   0  0  0  0  0  0  0  0  0  0  0  0
    1.8351    1.7162    0.8593 H   0  0  0  0  0  0  0  0  0  0  0  0
    1.7999    1.7391   -0.9201 H   0  0  0  0  0  0  0  0  0  0  0  0
    2.1515   -0.1312   -0.0712 H   0  0  0  0  0  0  0  0  0  0  0  0
    2.1925   -2.5876   -0.0931 H   0  0  0  0  0  0  0  0  0  0  0  0
   -2.0986   -2.6475   -0.0098 H   0  0  0  0  0  0  0  0  0  0  0  0
   -2.1251   -0.1910    0.0224 H   0  0  0  0  0  0  0  0  0  0  0  0
    1.2452   -4.9125   -0.1052 O   0  5  0  0  0  0  0  0  0  0  0  0
  1  2  1  0  0  0  0
  1 28  1  0  0  0  0
  1 29  1  0  0  0  0
  1 30  1  0  0  0  0
  2  3  1  0  0  0  0
  2  4  1  0  0  0  0
  2  5  1  0  0  0  0
  3 31  1  0  0  0  0
  3 32  1  0  0  0  0
  3 33  1  0  0  0  0
  4 34  1  0  0  0  0
  4 35  1  0  0  0  0
  4 36  1  0  0  0  0
  5 10  2  0  0  0  0
  5  6  1  0  0  0  0
  6  7  2  0  0  0  0
  6 37  1  0  0  0  0
  7  8  1  0  0  0  0
  7 38  1  0  0  0  0
  8  9  2  0  0  0  0
  8 11  1  0  0  0  0
  9 10  1  0  0  0  0
  9 39  1  0  0  0  0
 10 40  1  0  0  0  0
 11 16  1  0  0  0  0
 11 12  1  0  0  0  0
 12 13  1  0  0  0  0
 12 41  1  0  0  0  0
 12 42  1  0  0  0  0
 13 14  1  0  0  0  0
 13 15  1  0  0  0  0
 13 18  1  0  0  0  0
 15 16  1  0  0  0  0
 15 43  1  0  0  0  0
 15 44  1  0  0  0  0
 16 17  2  0  0  0  0
 18 19  1  0  0  0  0
 18 45  1  0  0  0  0
 18 46  1  0  0  0  0
 19 20  1  0  0  0  0
 20 25  2  0  0  0  0
 20 21  1  0  0  0  0
 21 22  2  0  0  0  0
 21 47  1  0  0  0  0
 22 23  1  0  0  0  0
 22 48  1  0  0  0  0
 23 24  2  0  0  0  0
 23 26  1  0  0  0  0
 24 25  1  0  0  0  0
 24 49  1  0  0  0  0
 25 50  1  0  0  0  0
 26 27  2  0  0  0  0
 26 51  1  0  0  0  0
M  CHG  1  51  -1
M  END
$$$$
ZINC03784489
  -OEChem-08230709463D

 53 56  0     1  0  0  0  0  0999 V2000
    5.4913    1.4819   -2.4721 C   0  0  0  0  0  0  0  0  0  0  0  0
    4.1864    1.0725   -2.3140 C   0  0  0  0  0  0  0  0  0  0  0  0
    3.4253    1.5618   -1.2587 C   0  0  0  0  0  0  0  0  0  0  0  0
    3.9759    2.4704   -0.3621 C   0  0  0  0  0  0  0  0  0  0  0  0
    5.2819    2.8806   -0.5096 C   0  0  0  0  0  0  0  0  0  0  0  0
    6.0507    2.3911   -1.5695 C   0  0  0  0  0  0  0  0  0  0  0  0
    7.4479    2.8328   -1.7352 C   0  0  0  0  0  0  0  0  0  0  0  0
    8.1146    2.4065   -2.6573 O   0  0  0  0  0  0  0  0  0  0  0  0
    2.1395    1.1557   -1.1065 O   0  0  0  0  0  0  0  0  0  0  0  0
    1.4145    1.6978   -0.0007 C   0  0  0  0  0  0  0  0  0  0  0  0
   -0.0054    1.1279    0.0068 C   0  0  2  0  0  0  0  0  0  0  0  0
    0.0137    0.0381   -0.0035 H   0  0  0  0  0  0  0  0  0  0  0  0
   -0.8288    1.6781   -1.1808 C   0  0  0  0  0  0  0  0  0  0  0  0
   -2.2199    1.8605   -0.6149 C   0  0  0  0  0  0  0  0  0  0  0  0
   -3.2256    2.0062   -1.2770 O   0  0  0  0  0  0  0  0  0  0  0  0
   -2.1790    1.8383    0.7285 N   0  0  0  0  0  0  0  0  0  0  0  0
   -0.8064    1.6554    1.2178 C   0  0  0  0  0  0  0  0  0  0  0  0
   -3.3017    1.9725    1.5559 C   0  0  0  0  0  0  0  0  0  0  0  0
   -4.5411    2.2653    1.0028 C   0  0  0  0  0  0  0  0  0  0  0  0
   -5.6482    2.3923    1.8183 C   0  0  0  0  0  0  0  0  0  0  0  0
   -5.5201    2.2386    3.1911 C   0  0  0  0  0  0  0  0  0  0  0  0
   -4.2811    1.9513    3.7449 C   0  0  0  0  0  0  0  0  0  0  0  0
   -3.1743    1.8184    2.9299 C   0  0  0  0  0  0  0  0  0  0  0  0
   -6.6096    2.3693    3.9941 O   0  0  0  0  0  0  0  0  0  0  0  0
   -7.8732    2.5432    3.3499 C   0  0  0  0  0  0  0  0  0  0  0  0
   -8.1246    4.0402    3.0750 C   0  0  0  0  0  0  0  0  0  0  0  0
   -9.6435    4.2213    3.3187 C   0  0  0  0  0  0  0  0  0  0  0  0
   -9.9076    3.2960    4.5324 C   0  0  0  0  0  0  0  0  0  0  0  0
   -9.0068    2.0700    4.2765 C   0  0  0  0  0  0  0  0  0  0  0  0
    6.0818    1.1016   -3.2925 H   0  0  0  0  0  0  0  0  0  0  0  0
    3.7533    0.3704   -3.0111 H   0  0  0  0  0  0  0  0  0  0  0  0
    3.3798    2.8515    0.4539 H   0  0  0  0  0  0  0  0  0  0  0  0
    5.7104    3.5828    0.1901 H   0  0  0  0  0  0  0  0  0  0  0  0
    1.3700    2.7830   -0.0924 H   0  0  0  0  0  0  0  0  0  0  0  0
    1.9176    1.4320    0.9290 H   0  0  0  0  0  0  0  0  0  0  0  0
   -0.4246    2.6336   -1.5150 H   0  0  0  0  0  0  0  0  0  0  0  0
   -0.8398    0.9614   -2.0019 H   0  0  0  0  0  0  0  0  0  0  0  0
   -0.7882    0.9268    2.0283 H   0  0  0  0  0  0  0  0  0  0  0  0
   -0.3962    2.6070    1.5558 H   0  0  0  0  0  0  0  0  0  0  0  0
   -4.6400    2.3897   -0.0654 H   0  0  0  0  0  0  0  0  0  0  0  0
   -6.6132    2.6153    1.3878 H   0  0  0  0  0  0  0  0  0  0  0  0
   -4.1822    1.8311    4.8136 H   0  0  0  0  0  0  0  0  0  0  0  0
   -2.2098    1.5944    3.3612 H   0  0  0  0  0  0  0  0  0  0  0  0
   -7.8960    1.9823    2.4155 H   0  0  0  0  0  0  0  0  0  0  0  0
   -7.5510    4.6568    3.7670 H   0  0  0  0  0  0  0  0  0  0  0  0
   -7.8718    4.2865    2.0437 H   0  0  0  0  0  0  0  0  0  0  0  0
  -10.2158    3.8932    2.4511 H   0  0  0  0  0  0  0  0  0  0  0  0
   -9.8742    5.2576    3.5657 H   0  0  0  0  0  0  0  0  0  0  0  0
  -10.9558    2.9991    4.5648 H   0  0  0  0  0  0  0  0  0  0  0  0
   -9.6219    3.7923    5.4599 H   0  0  0  0  0  0  0  0  0  0  0  0
   -9.5803    1.2801    3.7916 H   0  0  0  0  0  0  0  0  0  0  0  0
   -8.5930    1.7069    5.2173 H   0  0  0  0  0  0  0  0  0  0  0  0
    7.9853    3.7092   -0.8641 O   0  5  0  0  0  0  0  0  0  0  0  0
  1  6  2  0  0  0  0
  1  2  1  0  0  0  0
  1 30  1  0  0  0  0
  2  3  2  0  0  0  0
  2 31  1  0  0  0  0
  3  4  1  0  0  0  0
  3  9  1  0  0  0  0
  4  5  2  0  0  0  0
  4 32  1  0  0  0  0
  5  6  1  0  0  0  0
  5 33  1  0  0  0  0
  6  7  1  0  0  0  0
  7  8  2  0  0  0  0
  7 53  1  0  0  0  0
  9 10  1  0  0  0  0
 10 11  1  0  0  0  0
 10 34  1  0  0  0  0
 10 35  1  0  0  0  0
 11 12  1  0  0  0  0
 11 17  1  0  0  0  0
 11 13  1  0  0  0  0
 13 14  1  0  0  0  0
 13 36  1  0  0  0  0
 13 37  1  0  0  0  0
 14 15  2  0  0  0  0
 14 16  1  0  0  0  0
 16 17  1  0  0  0  0
 16 18  1  0  0  0  0
 17 38  1  0  0  0  0
 17 39  1  0  0  0  0
 18 23  2  0  0  0  0
 18 19  1  0  0  0  0
 19 20  2  0  0  0  0
 19 40  1  0  0  0  0
 20 21  1  0  0  0  0
 20 41  1  0  0  0  0
 21 22  2  0  0  0  0
 21 24  1  0  0  0  0
 22 23  1  0  0  0  0
 22 42  1  0  0  0  0
 23 43  1  0  0  0  0
 24 25  1  0  0  0  0
 25 29  1  0  0  0  0
 25 26  1  0  0  0  0
 25 44  1  0  0  0  0
 26 27  1  0  0  0  0
 26 45  1  0  0  0  0
 26 46  1  0  0  0  0
 27 28  1  0  0  0  0
 27 47  1  0  0  0  0
 27 48  1  0  0  0  0
 28 29  1  0  0  0  0
 28 49  1  0  0  0  0
 28 50  1  0  0  0  0
 29 51  1  0  0  0  0
 29 52  1  0  0  0  0
M  CHG  1  53  -1
M  END
$$$$
ZINC03794977
  -OEChem-08230709463D

 55 59  0     0  0  0  0  0  0999 V2000
   -4.1166    0.5662   -3.3071 C   0  0  0  0  0  0  0  0  0  0  0  0
   -2.7671    0.9266   -3.0052 O   0  0  0  0  0  0  0  0  0  0  0  0
   -2.1264    1.7201   -3.9002 C   0  0  0  0  0  0  0  0  0  0  0  0
   -2.7862    2.1430   -5.0486 C   0  0  0  0  0  0  0  0  0  0  0  0
   -2.1401    2.9484   -5.9590 C   0  0  0  0  0  0  0  0  0  0  0  0
   -0.8181    3.3407   -5.7277 C   0  0  0  0  0  0  0  0  0  0  0  0
   -0.1600    2.9170   -4.5695 C   0  0  0  0  0  0  0  0  0  0  0  0
   -0.8120    2.1073   -3.6666 C   0  0  0  0  0  0  0  0  0  0  0  0
   -0.1017    1.6454   -2.4204 C   0  0  0  0  0  0  0  0  0  0  0  0
   -0.8590    2.1430   -1.1876 C   0  0  0  0  0  0  0  0  0  0  0  0
   -0.1378    1.6740    0.0776 C   0  0  0  0  0  0  0  0  0  0  0  0
    1.2850    2.2363    0.0918 C   0  0  0  0  0  0  0  0  0  0  0  0
    2.0423    1.7387   -1.1410 C   0  0  0  0  0  0  0  0  0  0  0  0
    1.3212    2.2077   -2.4063 C   0  0  0  0  0  0  0  0  0  0  0  0
    2.0979    0.2098   -1.1227 C   0  0  0  0  0  0  0  0  0  0  0  0
    0.6751   -0.3525   -1.1369 C   0  0  0  0  0  0  0  0  0  0  0  0
   -0.0822    0.1451    0.0959 C   0  0  0  0  0  0  0  0  0  0  0  0
   -0.0461    0.1165   -2.4021 C   0  0  0  0  0  0  0  0  0  0  0  0
   -0.1220    4.2032   -6.7001 C   0  0  0  0  0  0  0  0  0  0  0  0
    1.0269    4.5431   -6.4974 O   0  0  0  0  0  0  0  0  0  0  0  0
   -0.7600    4.6148   -7.8139 O   0  0  0  0  0  0  0  0  0  0  0  0
   -0.0991    5.4883   -8.6156 C   0  0  0  0  0  0  0  0  0  0  0  0
   -0.4387    6.8360   -8.6004 C   0  0  0  0  0  0  0  0  0  0  0  0
    0.2325    7.7263   -9.4085 C   0  0  0  0  0  0  0  0  0  0  0  0
    1.2493    7.2713  -10.2527 C   0  0  0  0  0  0  0  0  0  0  0  0
    1.5840    5.9143  -10.2688 C   0  0  0  0  0  0  0  0  0  0  0  0
    0.9114    5.0316   -9.4536 C   0  0  0  0  0  0  0  0  0  0  0  0
    1.9675    8.2205  -11.1239 C   0  0  0  0  0  0  0  0  0  0  0  0
    2.8513    7.8232  -11.8568 O   0  0  0  0  0  0  0  0  0  0  0  0
   -4.7242    1.4677   -3.3870 H   0  0  0  0  0  0  0  0  0  0  0  0
   -4.1450    0.0240   -4.2522 H   0  0  0  0  0  0  0  0  0  0  0  0
   -4.5099   -0.0678   -2.5125 H   0  0  0  0  0  0  0  0  0  0  0  0
   -3.8073    1.8396   -5.2265 H   0  0  0  0  0  0  0  0  0  0  0  0
   -2.6534    3.2765   -6.8508 H   0  0  0  0  0  0  0  0  0  0  0  0
    0.8598    3.2210   -4.3851 H   0  0  0  0  0  0  0  0  0  0  0  0
   -1.8727    1.7424   -1.1977 H   0  0  0  0  0  0  0  0  0  0  0  0
   -0.8986    3.2322   -1.2007 H   0  0  0  0  0  0  0  0  0  0  0  0
   -0.6773    2.0285    0.9559 H   0  0  0  0  0  0  0  0  0  0  0  0
    1.2454    3.3255    0.0787 H   0  0  0  0  0  0  0  0  0  0  0  0
    1.7988    1.9022    0.9932 H   0  0  0  0  0  0  0  0  0  0  0  0
    3.0560    2.1393   -1.1310 H   0  0  0  0  0  0  0  0  0  0  0  0
    1.2815    3.2969   -2.4193 H   0  0  0  0  0  0  0  0  0  0  0  0
    1.8607    1.8532   -3.2846 H   0  0  0  0  0  0  0  0  0  0  0  0
    2.6117   -0.1243   -0.2213 H   0  0  0  0  0  0  0  0  0  0  0  0
    2.6375   -0.1447   -2.0010 H   0  0  0  0  0  0  0  0  0  0  0  0
    0.7147   -1.4417   -1.1238 H   0  0  0  0  0  0  0  0  0  0  0  0
    0.4316   -0.1890    0.9973 H   0  0  0  0  0  0  0  0  0  0  0  0
   -1.0959   -0.2555    0.0859 H   0  0  0  0  0  0  0  0  0  0  0  0
    0.4934   -0.2380   -3.2804 H   0  0  0  0  0  0  0  0  0  0  0  0
   -1.0598   -0.2841   -2.4122 H   0  0  0  0  0  0  0  0  0  0  0  0
   -1.2273    7.1862   -7.9508 H   0  0  0  0  0  0  0  0  0  0  0  0
   -0.0292    8.7740   -9.3931 H   0  0  0  0  0  0  0  0  0  0  0  0
    2.3693    5.5587  -10.9193 H   0  0  0  0  0  0  0  0  0  0  0  0
    1.1696    3.9830   -9.4651 H   0  0  0  0  0  0  0  0  0  0  0  0
    1.6433    9.5283  -11.1069 O   0  5  0  0  0  0  0  0  0  0  0  0
  1  2  1  0  0  0  0
  1 30  1  0  0  0  0
  1 31  1  0  0  0  0
  1 32  1  0  0  0  0
  2  3  1  0  0  0  0
  3  8  2  0  0  0  0
  3  4  1  0  0  0  0
  4  5  2  0  0  0  0
  4 33  1  0  0  0  0
  5  6  1  0  0  0  0
  5 34  1  0  0  0  0
  6  7  2  0  0  0  0
  6 19  1  0  0  0  0
  7  8  1  0  0  0  0
  7 35  1  0  0  0  0
  8  9  1  0  0  0  0
  9 14  1  0  0  0  0
  9 18  1  0  0  0  0
  9 10  1  0  0  0  0
 10 11  1  0  0  0  0
 10 36  1  0  0  0  0
 10 37  1  0  0  0  0
 11 17  1  0  0  0  0
 11 12  1  0  0  0  0
 11 38  1  0  0  0  0
 12 13  1  0  0  0  0
 12 39  1  0  0  0  0
 12 40  1  0  0  0  0
 13 14  1  0  0  0  0
 13 15  1  0  0  0  0
 13 41  1  0  0  0  0
 14 42  1  0  0  0  0
 14 43  1  0  0  0  0
 15 16  1  0  0  0  0
 15 44  1  0  0  0  0
 15 45  1  0  0  0  0
 16 17  1  0  0  0  0
 16 18  1  0  0  0  0
 16 46  1  0  0  0  0
 17 47  1  0  0  0  0
 17 48  1  0  0  0  0
 18 49  1  0  0  0  0
 18 50  1  0  0  0  0
 19 20  2  0  0  0  0
 19 21  1  0  0  0  0
 21 22  1  0  0  0  0
 22 27  2  0  0  0  0
 22 23  1  0  0  0  0
 23 24  2  0  0  0  0
 23 51  1  0  0  0  0
 24 25  1  0  0  0  0
 24 52  1  0  0  0  0
 25 26  2  0  0  0  0
 25 28  1  0  0  0  0
 26 27  1  0  0  0  0
 26 53  1  0  0  0  0
 27 54  1  0  0  0  0
 28 29  2  0  0  0  0
 28 55  1  0  0  0  0
M  CHG  1  55  -1
M  END
$$$$
ZINC03794980
  -OEChem-08230709463D

 55 59  0     0  0  0  0  0  0999 V2000
   -4.1028    0.5734   -3.2907 C   0  0  0  0  0  0  0  0  0  0  0  0
   -2.7374    0.8946   -3.0175 O   0  0  0  0  0  0  0  0  0  0  0  0
   -2.0995    1.6877   -3.9153 C   0  0  0  0  0  0  0  0  0  0  0  0
   -2.7771    2.1471   -5.0388 C   0  0  0  0  0  0  0  0  0  0  0  0
   -2.1336    2.9518   -5.9520 C   0  0  0  0  0  0  0  0  0  0  0  0
   -0.7972    3.3067   -5.7482 C   0  0  0  0  0  0  0  0  0  0  0  0
   -0.1211    2.8467   -4.6151 C   0  0  0  0  0  0  0  0  0  0  0  0
   -0.7705    2.0378   -3.7092 C   0  0  0  0  0  0  0  0  0  0  0  0
   -0.0408    1.5369   -2.4895 C   0  0  0  0  0  0  0  0  0  0  0  0
   -0.7538    2.0319   -1.2295 C   0  0  0  0  0  0  0  0  0  0  0  0
   -0.0130    1.5234    0.0088 C   0  0  0  0  0  0  0  0  0  0  0  0
    1.4236    2.0497   -0.0043 C   0  0  0  0  0  0  0  0  0  0  0  0
    2.1366    1.5547   -1.2643 C   0  0  0  0  0  0  0  0  0  0  0  0
    1.3958    2.0633   -2.5026 C   0  0  0  0  0  0  0  0  0  0  0  0
    2.1538    0.0248   -1.2727 C   0  0  0  0  0  0  0  0  0  0  0  0
    0.7173   -0.5015   -1.2596 C   0  0  0  0  0  0  0  0  0  0  0  0
    0.0043   -0.0065    0.0003 C   0  0  0  0  0  0  0  0  0  0  0  0
   -0.0235    0.0071   -2.4979 C   0  0  0  0  0  0  0  0  0  0  0  0
   -0.1038    4.1693   -6.7240 C   0  0  0  0  0  0  0  0  0  0  0  0
    1.0592    4.4771   -6.5451 O   0  0  0  0  0  0  0  0  0  0  0  0
   -0.9606    4.7534   -8.1486 S   0  0  0  0  0  0  0  0  0  0  0  0
    0.2684    5.8162   -8.8303 C   0  0  0  0  0  0  0  0  0  0  0  0
    0.3742    7.1309   -8.3851 C   0  0  0  0  0  0  0  0  0  0  0  0
    1.3365    7.9619   -8.9113 C   0  0  0  0  0  0  0  0  0  0  0  0
    2.2013    7.4877   -9.9027 C   0  0  0  0  0  0  0  0  0  0  0  0
    2.0886    6.1682  -10.3517 C   0  0  0  0  0  0  0  0  0  0  0  0
    1.1277    5.3409   -9.8171 C   0  0  0  0  0  0  0  0  0  0  0  0
    3.2299    8.3768  -10.4728 C   0  0  0  0  0  0  0  0  0  0  0  0
    3.9809    7.9633  -11.3339 O   0  0  0  0  0  0  0  0  0  0  0  0
   -4.6891    1.4909   -3.3396 H   0  0  0  0  0  0  0  0  0  0  0  0
   -4.1689    0.0487   -4.2438 H   0  0  0  0  0  0  0  0  0  0  0  0
   -4.4918   -0.0645   -2.4971 H   0  0  0  0  0  0  0  0  0  0  0  0
   -3.8099    1.8727   -5.1954 H   0  0  0  0  0  0  0  0  0  0  0  0
   -2.6607    3.3080   -6.8248 H   0  0  0  0  0  0  0  0  0  0  0  0
    0.9105    3.1217   -4.4521 H   0  0  0  0  0  0  0  0  0  0  0  0
   -1.7772    1.6570   -1.2201 H   0  0  0  0  0  0  0  0  0  0  0  0
   -0.7661    3.1219   -1.2235 H   0  0  0  0  0  0  0  0  0  0  0  0
   -0.5210    1.8760    0.9065 H   0  0  0  0  0  0  0  0  0  0  0  0
    1.4113    3.1396    0.0017 H   0  0  0  0  0  0  0  0  0  0  0  0
    1.9513    1.6874    0.8779 H   0  0  0  0  0  0  0  0  0  0  0  0
    3.1600    1.9297   -1.2736 H   0  0  0  0  0  0  0  0  0  0  0  0
    1.3835    3.1532   -2.4965 H   0  0  0  0  0  0  0  0  0  0  0  0
    1.9037    1.7106   -3.4002 H   0  0  0  0  0  0  0  0  0  0  0  0
    2.6816   -0.3375   -0.3905 H   0  0  0  0  0  0  0  0  0  0  0  0
    2.6618   -0.3278   -2.1704 H   0  0  0  0  0  0  0  0  0  0  0  0
    0.7296   -1.5914   -1.2657 H   0  0  0  0  0  0  0  0  0  0  0  0
    0.5320   -0.3688    0.8826 H   0  0  0  0  0  0  0  0  0  0  0  0
   -1.0192   -0.3814    0.0097 H   0  0  0  0  0  0  0  0  0  0  0  0
    0.4844   -0.3456   -3.3956 H   0  0  0  0  0  0  0  0  0  0  0  0
   -1.0470   -0.3679   -2.4886 H   0  0  0  0  0  0  0  0  0  0  0  0
   -0.2972    7.4979   -7.6228 H   0  0  0  0  0  0  0  0  0  0  0  0
    1.4209    8.9805   -8.5622 H   0  0  0  0  0  0  0  0  0  0  0  0
    2.7551    5.7987  -11.1170 H   0  0  0  0  0  0  0  0  0  0  0  0
    1.0403    4.3216  -10.1632 H   0  0  0  0  0  0  0  0  0  0  0  0
    3.3372    9.6481  -10.0389 O   0  5  0  0  0  0  0  0  0  0  0  0
  1  2  1  0  0  0  0
  1 30  1  0  0  0  0
  1 31  1  0  0  0  0
  1 32  1  0  0  0  0
  2  3  1  0  0  0  0
  3  8  2  0  0  0  0
  3  4  1  0  0  0  0
  4  5  2  0  0  0  0
  4 33  1  0  0  0  0
  5  6  1  0  0  0  0
  5 34  1  0  0  0  0
  6  7  2  0  0  0  0
  6 19  1  0  0  0  0
  7  8  1  0  0  0  0
  7 35  1  0  0  0  0
  8  9  1  0  0  0  0
  9 14  1  0  0  0  0
  9 18  1  0  0  0  0
  9 10  1  0  0  0  0
 10 11  1  0  0  0  0
 10 36  1  0  0  0  0
 10 37  1  0  0  0  0
 11 17  1  0  0  0  0
 11 12  1  0  0  0  0
 11 38  1  0  0  0  0
 12 13  1  0  0  0  0
 12 39  1  0  0  0  0
 12 40  1  0  0  0  0
 13 14  1  0  0  0  0
 13 15  1  0  0  0  0
 13 41  1  0  0  0  0
 14 42  1  0  0  0  0
 14 43  1  0  0  0  0
 15 16  1  0  0  0  0
 15 44  1  0  0  0  0
 15 45  1  0  0  0  0
 16 17  1  0  0  0  0
 16 18  1  0  0  0  0
 16 46  1  0  0  0  0
 17 47  1  0  0  0  0
 17 48  1  0  0  0  0
 18 49  1  0  0  0  0
 18 50  1  0  0  0  0
 19 20  2  0  0  0  0
 19 21  1  0  0  0  0
 21 22  1  0  0  0  0
 22 27  2  0  0  0  0
 22 23  1  0  0  0  0
 23 24  2  0  0  0  0
 23 51  1  0  0  0  0
 24 25  1  0  0  0  0
 24 52  1  0  0  0  0
 25 26  2  0  0  0  0
 25 28  1  0  0  0  0
 26 27  1  0  0  0  0
 26 53  1  0  0  0  0
 27 54  1  0  0  0  0
 28 29  2  0  0  0  0
 28 55  1  0  0  0  0
M  CHG  1  55  -1
M  END
$$$$
ZINC03799802
  -OEChem-08230709463D

 58 61  0     1  0  0  0  0  0999 V2000
    1.9447    9.1998    2.6059 C   0  0  0  0  0  0  0  0  0  0  0  0
    1.6332    9.8808    1.2717 C   0  0  2  0  0  0  0  0  0  0  0  0
    0.2716    9.4307    0.8044 C   0  0  0  0  0  0  0  0  0  0  0  0
    0.2738    7.8882    0.7989 C   0  0  0  0  0  0  0  0  0  0  0  0
    1.4061    7.3519   -0.0638 C   0  0  2  0  0  0  0  0  0  0  0  0
    1.2184    7.6895   -1.0831 H   0  0  0  0  0  0  0  0  0  0  0  0
    1.4385    5.8514   -0.0783 C   0  0  0  0  0  0  0  0  0  0  0  0
    0.2302    5.1680   -0.0133 C   0  0  0  0  0  0  0  0  0  0  0  0
    0.1951    3.7926   -0.0451 C   0  0  0  0  0  0  0  0  0  0  0  0
    1.3900    3.0749   -0.1310 C   0  0  0  0  0  0  0  0  0  0  0  0
    2.5997    3.7627   -0.1907 C   0  0  0  0  0  0  0  0  0  0  0  0
    2.6243    5.1487   -0.1606 C   0  0  0  0  0  0  0  0  0  0  0  0
    3.9703    5.8229   -0.2079 C   0  0  0  0  0  0  0  0  0  0  0  0
    3.8358    7.3073   -0.5449 C   0  0  0  0  0  0  0  0  0  0  0  0
    2.7687    7.9096    0.3693 C   0  0  1  0  0  0  0  0  0  0  0  0
    2.9703    7.6386    1.4057 H   0  0  0  0  0  0  0  0  0  0  0  0
    2.6855    9.4141    0.2212 C   0  0  2  0  0  0  0  0  0  0  0  0
    2.4002    9.6983   -0.7917 H   0  0  0  0  0  0  0  0  0  0  0  0
    3.8921   10.2256    0.7140 C   0  0  0  0  0  0  0  0  0  0  0  0
    3.2164   11.5485    1.1258 C   0  0  0  0  0  0  0  0  0  0  0  0
    1.9188   11.3372    1.4134 C   0  0  0  0  0  0  0  0  0  0  0  0
    0.9459   12.3696    1.8026 C   0  0  0  0  0  0  0  0  0  0  0  0
   -0.1802   12.0504    2.1326 O   0  0  0  0  0  0  0  0  0  0  0  0
    1.3025   13.6693    1.7935 N   0  0  0  0  0  0  0  0  0  0  0  0
    0.3698   14.6882    2.2814 C   0  0  0  0  0  0  0  0  0  0  0  0
    0.0296   14.4085    3.7466 C   0  0  0  0  0  0  0  0  0  0  0  0
    1.0161   16.0699    2.1626 C   0  0  0  0  0  0  0  0  0  0  0  0
   -0.9104   14.6504    1.4443 C   0  0  0  0  0  0  0  0  0  0  0  0
    1.3708    1.5981   -0.1645 C   0  0  0  0  0  0  0  0  0  0  0  0
    2.4127    0.9788   -0.2444 O   0  0  0  0  0  0  0  0  0  0  0  0
    2.9780    9.4047    2.8858 H   0  0  0  0  0  0  0  0  0  0  0  0
    1.2764    9.5858    3.3756 H   0  0  0  0  0  0  0  0  0  0  0  0
    1.8017    8.1238    2.5067 H   0  0  0  0  0  0  0  0  0  0  0  0
   -0.4947    9.7979    1.4871 H   0  0  0  0  0  0  0  0  0  0  0  0
    0.0827    9.8047   -0.2019 H   0  0  0  0  0  0  0  0  0  0  0  0
   -0.6774    7.5297    0.4056 H   0  0  0  0  0  0  0  0  0  0  0  0
    0.3983    7.5262    1.8195 H   0  0  0  0  0  0  0  0  0  0  0  0
   -0.6932    5.7234    0.0586 H   0  0  0  0  0  0  0  0  0  0  0  0
   -0.7499    3.2717    0.0006 H   0  0  0  0  0  0  0  0  0  0  0  0
    3.5261    3.2120   -0.2607 H   0  0  0  0  0  0  0  0  0  0  0  0
    4.4555    5.7198    0.7627 H   0  0  0  0  0  0  0  0  0  0  0  0
    4.5855    5.3389   -0.9664 H   0  0  0  0  0  0  0  0  0  0  0  0
    3.5352    7.4221   -1.5864 H   0  0  0  0  0  0  0  0  0  0  0  0
    4.7884    7.8104   -0.3796 H   0  0  0  0  0  0  0  0  0  0  0  0
    4.3591    9.7463    1.5743 H   0  0  0  0  0  0  0  0  0  0  0  0
    4.6153   10.3746   -0.0878 H   0  0  0  0  0  0  0  0  0  0  0  0
    3.7134   12.5066    1.1635 H   0  0  0  0  0  0  0  0  0  0  0  0
    2.1768   13.9300    1.4640 H   0  0  0  0  0  0  0  0  0  0  0  0
    0.9416   14.4355    4.3429 H   0  0  0  0  0  0  0  0  0  0  0  0
   -0.6644   15.1667    4.1096 H   0  0  0  0  0  0  0  0  0  0  0  0
   -0.4309   13.4242    3.8312 H   0  0  0  0  0  0  0  0  0  0  0  0
    1.2585   16.2692    1.1188 H   0  0  0  0  0  0  0  0  0  0  0  0
    0.3221   16.8281    2.5256 H   0  0  0  0  0  0  0  0  0  0  0  0
    1.9281   16.0969    2.7590 H   0  0  0  0  0  0  0  0  0  0  0  0
   -1.3708   13.6660    1.5289 H   0  0  0  0  0  0  0  0  0  0  0  0
   -1.6043   15.4085    1.8073 H   0  0  0  0  0  0  0  0  0  0  0  0
   -0.6680   14.8496    0.4005 H   0  0  0  0  0  0  0  0  0  0  0  0
    0.1978    0.9383   -0.1065 O   0  5  0  0  0  0  0  0  0  0  0  0
  1  2  1  0  0  0  0
  1 31  1  0  0  0  0
  1 32  1  0  0  0  0
  1 33  1  0  0  0  0
  2 17  1  0  0  0  0
  2 21  1  0  0  0  0
  2  3  1  0  0  0  0
  3  4  1  0  0  0  0
  3 34  1  0  0  0  0
  3 35  1  0  0  0  0
  4  5  1  0  0  0  0
  4 36  1  0  0  0  0
  4 37  1  0  0  0  0
  5  6  1  0  0  0  0
  5 15  1  0  0  0  0
  5  7  1  0  0  0  0
  7 12  2  0  0  0  0
  7  8  1  0  0  0  0
  8  9  2  0  0  0  0
  8 38  1  0  0  0  0
  9 10  1  0  0  0  0
  9 39  1  0  0  0  0
 10 11  2  0  0  0  0
 10 29  1  0  0  0  0
 11 12  1  0  0  0  0
 11 40  1  0  0  0  0
 12 13  1  0  0  0  0
 13 14  1  0  0  0  0
 13 41  1  0  0  0  0
 13 42  1  0  0  0  0
 14 15  1  0  0  0  0
 14 43  1  0  0  0  0
 14 44  1  0  0  0  0
 15 16  1  0  0  0  0
 15 17  1  0  0  0  0
 17 18  1  0  0  0  0
 17 19  1  0  0  0  0
 19 20  1  0  0  0  0
 19 45  1  0  0  0  0
 19 46  1  0  0  0  0
 20 21  2  0  0  0  0
 20 47  1  0  0  0  0
 21 22  1  0  0  0  0
 22 23  2  0  0  0  0
 22 24  1  0  0  0  0
 24 25  1  0  0  0  0
 24 48  1  0  0  0  0
 25 26  1  0  0  0  0
 25 27  1  0  0  0  0
 25 28  1  0  0  0  0
 26 49  1  0  0  0  0
 26 50  1  0  0  0  0
 26 51  1  0  0  0  0
 27 52  1  0  0  0  0
 27 53  1  0  0  0  0
 27 54  1  0  0  0  0
 28 55  1  0  0  0  0
 28 56  1  0  0  0  0
 28 57  1  0  0  0  0
 29 30  2  0  0  0  0
 29 58  1  0  0  0  0
M  CHG  1  58  -1
M  END
$$$$
ZINC03799908
  -OEChem-08230709463D

 65 67  0     1  0  0  0  0  0999 V2000
    3.2670   11.0123   -7.3487 C   0  0  0  0  0  0  0  0  0  0  0  0
    3.0945   10.4471   -5.9374 C   0  0  0  0  0  0  0  0  0  0  0  0
    1.6533   10.6661   -5.4729 C   0  0  0  0  0  0  0  0  0  0  0  0
    3.4054    8.9491   -5.9465 C   0  0  0  0  0  0  0  0  0  0  0  0
    4.8466    8.7300   -6.4110 C   0  0  0  0  0  0  0  0  0  0  0  0
    5.8097    9.3371   -5.3889 C   0  0  0  0  0  0  0  0  0  0  0  0
    5.1185    7.2299   -6.5397 C   0  0  0  0  0  0  0  0  0  0  0  0
    3.2443    8.4212   -4.6284 O   0  0  0  0  0  0  0  0  0  0  0  0
    2.6904    7.1846   -4.5223 C   0  0  0  0  0  0  0  0  0  0  0  0
    2.4090    6.4499   -5.6664 C   0  0  0  0  0  0  0  0  0  0  0  0
    1.8452    5.1917   -5.5647 C   0  0  0  0  0  0  0  0  0  0  0  0
    1.5583    4.6576   -4.3250 C   0  0  0  0  0  0  0  0  0  0  0  0
    1.8376    5.3886   -3.1694 C   0  0  0  0  0  0  0  0  0  0  0  0
    2.4017    6.6604   -3.2738 C   0  0  0  0  0  0  0  0  0  0  0  0
    1.5311    4.8198   -1.8394 C   0  0  0  0  0  0  0  0  0  0  0  0
    1.7753    5.4583   -0.8344 O   0  0  0  0  0  0  0  0  0  0  0  0
    0.9810    3.5933   -1.7416 N   0  0  0  0  0  0  0  0  0  0  0  0
    0.6774    3.0297   -0.4238 C   0  0  1  0  0  0  0  0  0  0  0  0
    0.9595    3.7509    0.3432 H   0  0  0  0  0  0  0  0  0  0  0  0
   -0.8244    2.7691   -0.3295 C   0  0  0  0  0  0  0  0  0  0  0  0
   -1.2047    1.7368   -1.4002 C   0  0  0  0  0  0  0  0  0  0  0  0
   -0.4592    0.4639   -1.0911 C   0  0  0  0  0  0  0  0  0  0  0  0
    0.7475    0.4993   -0.5426 C   0  0  0  0  0  0  0  0  0  0  0  0
    1.4842    1.7683   -0.2318 C   0  0  2  0  0  0  0  0  0  0  0  0
    2.0539    1.6578    1.1835 C   0  0  0  0  0  0  0  0  0  0  0  0
    3.0582    0.5047    1.2203 C   0  0  0  0  0  0  0  0  0  0  0  0
    2.4863   -0.7462    0.6252 C   0  0  0  0  0  0  0  0  0  0  0  0
    1.4241   -0.7643   -0.2031 C   0  0  0  0  0  0  0  0  0  0  0  0
    3.0984   -1.9823    0.9534 C   0  0  0  0  0  0  0  0  0  0  0  0
    2.6622   -3.0191    0.4901 O   0  0  0  0  0  0  0  0  0  0  0  0
    2.6727    1.8494   -1.1919 C   0  0  0  0  0  0  0  0  0  0  0  0
    2.5845   10.5037   -8.0297 H   0  0  0  0  0  0  0  0  0  0  0  0
    3.0455   12.0796   -7.3422 H   0  0  0  0  0  0  0  0  0  0  0  0
    4.2937   10.8563   -7.6796 H   0  0  0  0  0  0  0  0  0  0  0  0
    3.7770   10.9557   -5.2565 H   0  0  0  0  0  0  0  0  0  0  0  0
    1.4319   11.7334   -5.4664 H   0  0  0  0  0  0  0  0  0  0  0  0
    0.9708   10.1576   -6.1538 H   0  0  0  0  0  0  0  0  0  0  0  0
    1.5305   10.2635   -4.4675 H   0  0  0  0  0  0  0  0  0  0  0  0
    2.7229    8.4405   -6.6274 H   0  0  0  0  0  0  0  0  0  0  0  0
    4.9935    9.2102   -7.3784 H   0  0  0  0  0  0  0  0  0  0  0  0
    5.6628    8.8568   -4.4214 H   0  0  0  0  0  0  0  0  0  0  0  0
    6.8365    9.1810   -5.7198 H   0  0  0  0  0  0  0  0  0  0  0  0
    5.6160   10.4058   -5.2971 H   0  0  0  0  0  0  0  0  0  0  0  0
    4.4324    6.7974   -7.2679 H   0  0  0  0  0  0  0  0  0  0  0  0
    6.1453    7.0739   -6.8707 H   0  0  0  0  0  0  0  0  0  0  0  0
    4.9716    6.7497   -5.5723 H   0  0  0  0  0  0  0  0  0  0  0  0
    2.6310    6.8629   -6.6393 H   0  0  0  0  0  0  0  0  0  0  0  0
    1.6289    4.6249   -6.4582 H   0  0  0  0  0  0  0  0  0  0  0  0
    1.1182    3.6742   -4.2491 H   0  0  0  0  0  0  0  0  0  0  0  0
    2.6160    7.2327   -2.3833 H   0  0  0  0  0  0  0  0  0  0  0  0
    0.7862    3.0837   -2.5436 H   0  0  0  0  0  0  0  0  0  0  0  0
   -1.0680    2.3795    0.6589 H   0  0  0  0  0  0  0  0  0  0  0  0
   -1.3697    3.6967   -0.5037 H   0  0  0  0  0  0  0  0  0  0  0  0
   -2.2785    1.5518   -1.3705 H   0  0  0  0  0  0  0  0  0  0  0  0
   -0.9194    2.1044   -2.3859 H   0  0  0  0  0  0  0  0  0  0  0  0
   -0.9126   -0.4889   -1.3214 H   0  0  0  0  0  0  0  0  0  0  0  0
    1.2460    1.4615    1.8884 H   0  0  0  0  0  0  0  0  0  0  0  0
    2.5551    2.5878    1.4517 H   0  0  0  0  0  0  0  0  0  0  0  0
    3.3385    0.3102    2.2555 H   0  0  0  0  0  0  0  0  0  0  0  0
    3.9477    0.7912    0.6591 H   0  0  0  0  0  0  0  0  0  0  0  0
    1.0711   -1.6982   -0.6150 H   0  0  0  0  0  0  0  0  0  0  0  0
    2.3082    1.9038   -2.2177 H   0  0  0  0  0  0  0  0  0  0  0  0
    3.2609    2.7393   -0.9676 H   0  0  0  0  0  0  0  0  0  0  0  0
    3.2959    0.9629   -1.0743 H   0  0  0  0  0  0  0  0  0  0  0  0
    4.1648   -2.0087    1.7797 O   0  5  0  0  0  0  0  0  0  0  0  0
  1  2  1  0  0  0  0
  1 32  1  0  0  0  0
  1 33  1  0  0  0  0
  1 34  1  0  0  0  0
  2  3  1  0  0  0  0
  2  4  1  0  0  0  0
  2 35  1  0  0  0  0
  3 36  1  0  0  0  0
  3 37  1  0  0  0  0
  3 38  1  0  0  0  0
  4  5  1  0  0  0  0
  4  8  1  0  0  0  0
  4 39  1  0  0  0  0
  5  6  1  0  0  0  0
  5  7  1  0  0  0  0
  5 40  1  0  0  0  0
  6 41  1  0  0  0  0
  6 42  1  0  0  0  0
  6 43  1  0  0  0  0
  7 44  1  0  0  0  0
  7 45  1  0  0  0  0
  7 46  1  0  0  0  0
  8  9  1  0  0  0  0
  9 14  2  0  0  0  0
  9 10  1  0  0  0  0
 10 11  2  0  0  0  0
 10 47  1  0  0  0  0
 11 12  1  0  0  0  0
 11 48  1  0  0  0  0
 12 13  2  0  0  0  0
 12 49  1  0  0  0  0
 13 14  1  0  0  0  0
 13 15  1  0  0  0  0
 14 50  1  0  0  0  0
 15 16  2  0  0  0  0
 15 17  1  0  0  0  0
 17 18  1  0  0  0  0
 17 51  1  0  0  0  0
 18 19  1  0  0  0  0
 18 24  1  0  0  0  0
 18 20  1  0  0  0  0
 20 21  1  0  0  0  0
 20 52  1  0  0  0  0
 20 53  1  0  0  0  0
 21 22  1  0  0  0  0
 21 54  1  0  0  0  0
 21 55  1  0  0  0  0
 22 23  2  0  0  0  0
 22 56  1  0  0  0  0
 23 28  1  0  0  0  0
 23 24  1  0  0  0  0
 24 25  1  0  0  0  0
 24 31  1  0  0  0  0
 25 26  1  0  0  0  0
 25 57  1  0  0  0  0
 25 58  1  0  0  0  0
 26 27  1  0  0  0  0
 26 59  1  0  0  0  0
 26 60  1  0  0  0  0
 27 28  2  0  0  0  0
 27 29  1  0  0  0  0
 28 61  1  0  0  0  0
 29 30  2  0  0  0  0
 29 65  1  0  0  0  0
 31 62  1  0  0  0  0
 31 63  1  0  0  0  0
 31 64  1  0  0  0  0
M  CHG  1  65  -1
M  END
$$$$
ZINC03799916
  -OEChem-08230709463D

 57 60  0     1  0  0  0  0  0999 V2000
    0.5302    4.8631   -1.6535 C   0  0  0  0  0  0  0  0  0  0  0  0
   -0.3774    3.6631   -1.3758 C   0  0  1  0  0  0  0  0  0  0  0  0
    0.4837    2.4026   -1.4809 C   0  0  0  0  0  0  0  0  0  0  0  0
    1.7008    2.5598   -0.5683 C   0  0  0  0  0  0  0  0  0  0  0  0
    1.3012    2.9818    0.8134 C   0  0  0  0  0  0  0  0  0  0  0  0
    0.1225    3.5613    1.1073 C   0  0  0  0  0  0  0  0  0  0  0  0
   -0.8654    3.7835    0.0372 C   0  0  0  0  0  0  0  0  0  0  0  0
   -2.1267    4.0304    0.3636 C   0  0  0  0  0  0  0  0  0  0  0  0
   -3.1917    4.1561   -0.6951 C   0  0  0  0  0  0  0  0  0  0  0  0
   -2.8100    3.2276   -1.8560 C   0  0  0  0  0  0  0  0  0  0  0  0
   -1.4681    3.6890   -2.4207 C   0  0  2  0  0  0  0  0  0  0  0  0
   -1.5731    4.7059   -2.7987 H   0  0  0  0  0  0  0  0  0  0  0  0
   -1.0885    2.8079   -3.5279 N   0  0  0  0  0  0  0  0  0  0  0  0
   -1.0454    3.2877   -4.7866 C   0  0  0  0  0  0  0  0  0  0  0  0
   -1.3214    4.4515   -5.0032 O   0  0  0  0  0  0  0  0  0  0  0  0
   -0.6623    2.3984   -5.9040 C   0  0  0  0  0  0  0  0  0  0  0  0
   -0.3449    1.0614   -5.6581 C   0  0  0  0  0  0  0  0  0  0  0  0
    0.0122    0.2344   -6.7031 C   0  0  0  0  0  0  0  0  0  0  0  0
    0.0565    0.7254   -7.9951 C   0  0  0  0  0  0  0  0  0  0  0  0
   -0.2575    2.0534   -8.2493 C   0  0  0  0  0  0  0  0  0  0  0  0
   -0.6224    2.8910   -7.2084 C   0  0  0  0  0  0  0  0  0  0  0  0
   -0.2124    2.5306   -9.5211 O   0  0  0  0  0  0  0  0  0  0  0  0
    0.0464    1.5844  -10.5602 C   0  0  0  0  0  0  0  0  0  0  0  0
    1.5674    1.4139  -10.7531 C   0  0  0  0  0  0  0  0  0  0  0  0
    1.7390    1.2465  -12.2841 C   0  0  0  0  0  0  0  0  0  0  0  0
    0.6895    2.2315  -12.8562 C   0  0  0  0  0  0  0  0  0  0  0  0
   -0.5118    2.1036  -11.8969 C   0  0  0  0  0  0  0  0  0  0  0  0
    2.2180    2.7595    1.8720 C   0  0  0  0  0  0  0  0  0  0  0  0
    1.9283    3.0889    3.0066 O   0  0  0  0  0  0  0  0  0  0  0  0
    0.9548    4.7738   -2.6534 H   0  0  0  0  0  0  0  0  0  0  0  0
   -0.0521    5.7821   -1.5868 H   0  0  0  0  0  0  0  0  0  0  0  0
    1.3343    4.8884   -0.9181 H   0  0  0  0  0  0  0  0  0  0  0  0
    0.8142    2.2708   -2.5112 H   0  0  0  0  0  0  0  0  0  0  0  0
   -0.0967    1.5341   -1.1695 H   0  0  0  0  0  0  0  0  0  0  0  0
    2.2282    1.6076   -0.5111 H   0  0  0  0  0  0  0  0  0  0  0  0
    2.3679    3.3111   -0.9909 H   0  0  0  0  0  0  0  0  0  0  0  0
   -0.0984    3.8606    2.1212 H   0  0  0  0  0  0  0  0  0  0  0  0
   -2.3949    4.1427    1.4037 H   0  0  0  0  0  0  0  0  0  0  0  0
   -4.1566    3.8575   -0.2854 H   0  0  0  0  0  0  0  0  0  0  0  0
   -3.2422    5.1863   -1.0475 H   0  0  0  0  0  0  0  0  0  0  0  0
   -2.7231    2.2033   -1.4936 H   0  0  0  0  0  0  0  0  0  0  0  0
   -3.5728    3.2786   -2.6329 H   0  0  0  0  0  0  0  0  0  0  0  0
   -0.8683    1.8791   -3.3550 H   0  0  0  0  0  0  0  0  0  0  0  0
   -0.3784    0.6747   -4.6503 H   0  0  0  0  0  0  0  0  0  0  0  0
    0.2576   -0.7998   -6.5115 H   0  0  0  0  0  0  0  0  0  0  0  0
    0.3367    0.0734   -8.8092 H   0  0  0  0  0  0  0  0  0  0  0  0
   -0.8716    3.9232   -7.4055 H   0  0  0  0  0  0  0  0  0  0  0  0
   -0.4085    0.6251  -10.3131 H   0  0  0  0  0  0  0  0  0  0  0  0
    2.0978    2.3002  -10.4046 H   0  0  0  0  0  0  0  0  0  0  0  0
    1.9212    0.5259  -10.2293 H   0  0  0  0  0  0  0  0  0  0  0  0
    1.5149    0.2239  -12.5877 H   0  0  0  0  0  0  0  0  0  0  0  0
    2.7444    1.5290  -12.5962 H   0  0  0  0  0  0  0  0  0  0  0  0
    0.4035    1.9397  -13.8667 H   0  0  0  0  0  0  0  0  0  0  0  0
    1.0763    3.2505  -12.8494 H   0  0  0  0  0  0  0  0  0  0  0  0
   -1.2369    1.3959  -12.2988 H   0  0  0  0  0  0  0  0  0  0  0  0
   -0.9808    3.0769  -11.7528 H   0  0  0  0  0  0  0  0  0  0  0  0
    3.4116    2.1826    1.6208 O   0  5  0  0  0  0  0  0  0  0  0  0
  1  2  1  0  0  0  0
  1 30  1  0  0  0  0
  1 31  1  0  0  0  0
  1 32  1  0  0  0  0
  2  7  1  0  0  0  0
  2 11  1  0  0  0  0
  2  3  1  0  0  0  0
  3  4  1  0  0  0  0
  3 33  1  0  0  0  0
  3 34  1  0  0  0  0
  4  5  1  0  0  0  0
  4 35  1  0  0  0  0
  4 36  1  0  0  0  0
  5  6  2  0  0  0  0
  5 28  1  0  0  0  0
  6  7  1  0  0  0  0
  6 37  1  0  0  0  0
  7  8  2  0  0  0  0
  8  9  1  0  0  0  0
  8 38  1  0  0  0  0
  9 10  1  0  0  0  0
  9 39  1  0  0  0  0
  9 40  1  0  0  0  0
 10 11  1  0  0  0  0
 10 41  1  0  0  0  0
 10 42  1  0  0  0  0
 11 12  1  0  0  0  0
 11 13  1  0  0  0  0
 13 14  1  0  0  0  0
 13 43  1  0  0  0  0
 14 15  2  0  0  0  0
 14 16  1  0  0  0  0
 16 21  2  0  0  0  0
 16 17  1  0  0  0  0
 17 18  2  0  0  0  0
 17 44  1  0  0  0  0
 18 19  1  0  0  0  0
 18 45  1  0  0  0  0
 19 20  2  0  0  0  0
 19 46  1  0  0  0  0
 20 21  1  0  0  0  0
 20 22  1  0  0  0  0
 21 47  1  0  0  0  0
 22 23  1  0  0  0  0
 23 27  1  0  0  0  0
 23 24  1  0  0  0  0
 23 48  1  0  0  0  0
 24 25  1  0  0  0  0
 24 49  1  0  0  0  0
 24 50  1  0  0  0  0
 25 26  1  0  0  0  0
 25 51  1  0  0  0  0
 25 52  1  0  0  0  0
 26 27  1  0  0  0  0
 26 53  1  0  0  0  0
 26 54  1  0  0  0  0
 27 55  1  0  0  0  0
 27 56  1  0  0  0  0
 28 29  2  0  0  0  0
 28 57  1  0  0  0  0
M  CHG  1  57  -1
M  END
$$$$
ZINC03799920
  -OEChem-08230709463D

 62 65  0     1  0  0  0  0  0999 V2000
    5.7987   -2.8966   -2.3687 C   0  0  0  0  0  0  0  0  0  0  0  0
    5.0424   -3.6457   -1.2697 C   0  0  1  0  0  0  0  0  0  0  0  0
    3.6465   -3.9427   -1.8204 C   0  0  0  0  0  0  0  0  0  0  0  0
    3.7904   -4.6352   -3.1766 C   0  0  0  0  0  0  0  0  0  0  0  0
    4.7472   -5.7869   -3.1108 C   0  0  0  0  0  0  0  0  0  0  0  0
    5.6690   -5.9408   -2.1406 C   0  0  0  0  0  0  0  0  0  0  0  0
    5.7499   -4.9504   -1.0533 C   0  0  0  0  0  0  0  0  0  0  0  0
    6.4271   -5.2471    0.0475 C   0  0  0  0  0  0  0  0  0  0  0  0
    6.4825   -4.2819    1.2038 C   0  0  0  0  0  0  0  0  0  0  0  0
    5.1471   -3.5256    1.2435 C   0  0  0  0  0  0  0  0  0  0  0  0
    4.9975   -2.7440   -0.0598 C   0  0  2  0  0  0  0  0  0  0  0  0
    5.8061   -2.0165   -0.1315 H   0  0  0  0  0  0  0  0  0  0  0  0
    3.7172   -2.0321   -0.0438 N   0  0  0  0  0  0  0  0  0  0  0  0
    3.6572   -0.7443   -0.4371 C   0  0  0  0  0  0  0  0  0  0  0  0
    4.6653   -0.1736   -0.8050 O   0  0  0  0  0  0  0  0  0  0  0  0
    2.3651   -0.0259   -0.4209 C   0  0  0  0  0  0  0  0  0  0  0  0
    1.2054   -0.6784    0.0011 C   0  0  0  0  0  0  0  0  0  0  0  0
    0.0031   -0.0025    0.0134 C   0  0  0  0  0  0  0  0  0  0  0  0
   -0.0551    1.3196   -0.3911 C   0  0  0  0  0  0  0  0  0  0  0  0
    1.0904    1.9721   -0.8104 C   0  0  0  0  0  0  0  0  0  0  0  0
    2.2994    1.3074   -0.8279 C   0  0  0  0  0  0  0  0  0  0  0  0
    1.0177    3.4120   -1.2491 C   0  0  0  0  0  0  0  0  0  0  0  0
    1.2466    4.3248   -0.0428 C   0  0  0  0  0  0  0  0  0  0  0  0
    0.1010    4.1475    0.9557 C   0  0  0  0  0  0  0  0  0  0  0  0
    0.3300    5.0604    2.1620 C   0  0  0  0  0  0  0  0  0  0  0  0
    0.3803    6.5171    1.6969 C   0  0  0  0  0  0  0  0  0  0  0  0
    1.5259    6.6944    0.6984 C   0  0  0  0  0  0  0  0  0  0  0  0
    1.2969    5.7816   -0.5079 C   0  0  0  0  0  0  0  0  0  0  0  0
    4.6778   -6.7719   -4.1284 C   0  0  0  0  0  0  0  0  0  0  0  0
    5.4377   -7.7216   -4.1085 O   0  0  0  0  0  0  0  0  0  0  0  0
    6.8074   -2.6682   -2.0246 H   0  0  0  0  0  0  0  0  0  0  0  0
    5.8518   -3.5189   -3.2621 H   0  0  0  0  0  0  0  0  0  0  0  0
    5.2757   -1.9693   -2.6023 H   0  0  0  0  0  0  0  0  0  0  0  0
    3.0958   -3.0100   -1.9429 H   0  0  0  0  0  0  0  0  0  0  0  0
    3.1107   -4.5957   -1.1316 H   0  0  0  0  0  0  0  0  0  0  0  0
    4.1531   -3.9129   -3.9080 H   0  0  0  0  0  0  0  0  0  0  0  0
    2.8139   -5.0017   -3.4931 H   0  0  0  0  0  0  0  0  0  0  0  0
    6.3439   -6.7837   -2.1601 H   0  0  0  0  0  0  0  0  0  0  0  0
    6.9457   -6.1920    0.1162 H   0  0  0  0  0  0  0  0  0  0  0  0
    7.3018   -3.5778    1.0586 H   0  0  0  0  0  0  0  0  0  0  0  0
    6.6251   -4.8292    2.1356 H   0  0  0  0  0  0  0  0  0  0  0  0
    5.1406   -2.8363    2.0878 H   0  0  0  0  0  0  0  0  0  0  0  0
    4.3259   -4.2355    1.3422 H   0  0  0  0  0  0  0  0  0  0  0  0
    2.9126   -2.4875    0.2498 H   0  0  0  0  0  0  0  0  0  0  0  0
    1.2496   -1.7100    0.3177 H   0  0  0  0  0  0  0  0  0  0  0  0
   -0.8949   -0.5062    0.3396 H   0  0  0  0  0  0  0  0  0  0  0  0
   -0.9997    1.8431   -0.3835 H   0  0  0  0  0  0  0  0  0  0  0  0
    3.1931    1.8180   -1.1552 H   0  0  0  0  0  0  0  0  0  0  0  0
    1.7849    3.6023   -1.9996 H   0  0  0  0  0  0  0  0  0  0  0  0
    0.0347    3.6127   -1.6753 H   0  0  0  0  0  0  0  0  0  0  0  0
    2.1901    4.0637    0.4366 H   0  0  0  0  0  0  0  0  0  0  0  0
   -0.8425    4.4087    0.4763 H   0  0  0  0  0  0  0  0  0  0  0  0
    0.0651    3.1097    1.2870 H   0  0  0  0  0  0  0  0  0  0  0  0
    1.2734    4.7992    2.6413 H   0  0  0  0  0  0  0  0  0  0  0  0
   -0.4862    4.9341    2.8733 H   0  0  0  0  0  0  0  0  0  0  0  0
    0.5434    7.1674    2.5563 H   0  0  0  0  0  0  0  0  0  0  0  0
   -0.5632    6.7783    1.2175 H   0  0  0  0  0  0  0  0  0  0  0  0
    2.4694    6.4333    1.1778 H   0  0  0  0  0  0  0  0  0  0  0  0
    1.5617    7.7322    0.3671 H   0  0  0  0  0  0  0  0  0  0  0  0
    2.1131    5.9079   -1.2192 H   0  0  0  0  0  0  0  0  0  0  0  0
    0.3535    6.0427   -0.9873 H   0  0  0  0  0  0  0  0  0  0  0  0
    3.7688   -6.6558   -5.1188 O   0  5  0  0  0  0  0  0  0  0  0  0
  1  2  1  0  0  0  0
  1 31  1  0  0  0  0
  1 32  1  0  0  0  0
  1 33  1  0  0  0  0
  2  7  1  0  0  0  0
  2 11  1  0  0  0  0
  2  3  1  0  0  0  0
  3  4  1  0  0  0  0
  3 34  1  0  0  0  0
  3 35  1  0  0  0  0
  4  5  1  0  0  0  0
  4 36  1  0  0  0  0
  4 37  1  0  0  0  0
  5  6  2  0  0  0  0
  5 29  1  0  0  0  0
  6  7  1  0  0  0  0
  6 38  1  0  0  0  0
  7  8  2  0  0  0  0
  8  9  1  0  0  0  0
  8 39  1  0  0  0  0
  9 10  1  0  0  0  0
  9 40  1  0  0  0  0
  9 41  1  0  0  0  0
 10 11  1  0  0  0  0
 10 42  1  0  0  0  0
 10 43  1  0  0  0  0
 11 12  1  0  0  0  0
 11 13  1  0  0  0  0
 13 14  1  0  0  0  0
 13 44  1  0  0  0  0
 14 15  2  0  0  0  0
 14 16  1  0  0  0  0
 16 21  2  0  0  0  0
 16 17  1  0  0  0  0
 17 18  2  0  0  0  0
 17 45  1  0  0  0  0
 18 19  1  0  0  0  0
 18 46  1  0  0  0  0
 19 20  2  0  0  0  0
 19 47  1  0  0  0  0
 20 21  1  0  0  0  0
 20 22  1  0  0  0  0
 21 48  1  0  0  0  0
 22 23  1  0  0  0  0
 22 49  1  0  0  0  0
 22 50  1  0  0  0  0
 23 28  1  0  0  0  0
 23 24  1  0  0  0  0
 23 51  1  0  0  0  0
 24 25  1  0  0  0  0
 24 52  1  0  0  0  0
 24 53  1  0  0  0  0
 25 26  1  0  0  0  0
 25 54  1  0  0  0  0
 25 55  1  0  0  0  0
 26 27  1  0  0  0  0
 26 56  1  0  0  0  0
 26 57  1  0  0  0  0
 27 28  1  0  0  0  0
 27 58  1  0  0  0  0
 27 59  1  0  0  0  0
 28 60  1  0  0  0  0
 28 61  1  0  0  0  0
 29 30  2  0  0  0  0
 29 62  1  0  0  0  0
M  CHG  1  62  -1
M  END
$$$$
ZINC03799925
  -OEChem-08230709463D

 61 65  0     1  0  0  0  0  0999 V2000
    4.1076    2.4407   -1.2204 C   0  0  0  0  0  0  0  0  0  0  0  0
    3.1419    2.1762   -0.0635 C   0  0  2  0  0  0  0  0  0  0  0  0
    3.9654    2.1963    1.2254 C   0  0  0  0  0  0  0  0  0  0  0  0
    5.1450    1.2352    1.0700 C   0  0  0  0  0  0  0  0  0  0  0  0
    4.7024   -0.1083    0.5747 C   0  0  0  0  0  0  0  0  0  0  0  0
    3.5290   -0.3275   -0.0497 C   0  0  0  0  0  0  0  0  0  0  0  0
    2.5935    0.7926   -0.2496 C   0  0  0  0  0  0  0  0  0  0  0  0
    1.3332    0.5376   -0.5730 C   0  0  0  0  0  0  0  0  0  0  0  0
    0.3348    1.6555   -0.7307 C   0  0  0  0  0  0  0  0  0  0  0  0
    0.7147    2.7608    0.2646 C   0  0  0  0  0  0  0  0  0  0  0  0
    2.1070    3.2749   -0.0951 C   0  0  2  0  0  0  0  0  0  0  0  0
    2.3917    4.0504    0.6161 H   0  0  0  0  0  0  0  0  0  0  0  0
    2.0681    3.8539   -1.4402 N   0  0  0  0  0  0  0  0  0  0  0  0
    2.2871    5.1725   -1.6129 C   0  0  0  0  0  0  0  0  0  0  0  0
    2.5169    5.8813   -0.6525 O   0  0  0  0  0  0  0  0  0  0  0  0
    2.2478    5.7569   -2.9705 C   0  0  0  0  0  0  0  0  0  0  0  0
    1.9840    4.9452   -4.0752 C   0  0  0  0  0  0  0  0  0  0  0  0
    1.9476    5.4938   -5.3405 C   0  0  0  0  0  0  0  0  0  0  0  0
    2.1712    6.8468   -5.5189 C   0  0  0  0  0  0  0  0  0  0  0  0
    2.4338    7.6619   -4.4265 C   0  0  0  0  0  0  0  0  0  0  0  0
    2.4683    7.1223   -3.1514 C   0  0  0  0  0  0  0  0  0  0  0  0
    2.6528    8.9910   -4.6077 O   0  0  0  0  0  0  0  0  0  0  0  0
    2.5746    9.4847   -5.9464 C   0  0  0  0  0  0  0  0  0  0  0  0
    1.1775   10.0551   -6.1989 C   0  0  0  0  0  0  0  0  0  0  0  0
    0.2402   10.1861   -4.9968 C   0  0  0  0  0  0  0  0  0  0  0  0
   -0.0115    9.1040   -6.0487 C   0  0  0  0  0  0  0  0  0  0  0  0
    3.6185   10.5854   -6.1458 C   0  0  0  0  0  0  0  0  0  0  0  0
    4.5543   10.4618   -7.3499 C   0  0  0  0  0  0  0  0  0  0  0  0
    5.0876   10.2119   -5.9378 C   0  0  0  0  0  0  0  0  0  0  0  0
    5.5686   -1.2128    0.7755 C   0  0  0  0  0  0  0  0  0  0  0  0
    5.2436   -2.3190    0.3877 O   0  0  0  0  0  0  0  0  0  0  0  0
    3.5620    2.4096   -2.1635 H   0  0  0  0  0  0  0  0  0  0  0  0
    4.5629    3.4233   -1.0962 H   0  0  0  0  0  0  0  0  0  0  0  0
    4.8860    1.6776   -1.2256 H   0  0  0  0  0  0  0  0  0  0  0  0
    3.3429    1.8787    2.0619 H   0  0  0  0  0  0  0  0  0  0  0  0
    4.3371    3.2045    1.4086 H   0  0  0  0  0  0  0  0  0  0  0  0
    5.6350    1.1143    2.0361 H   0  0  0  0  0  0  0  0  0  0  0  0
    5.8565    1.6588    0.3611 H   0  0  0  0  0  0  0  0  0  0  0  0
    3.2759   -1.3170   -0.4008 H   0  0  0  0  0  0  0  0  0  0  0  0
    1.0186   -0.4840   -0.7277 H   0  0  0  0  0  0  0  0  0  0  0  0
   -0.6677    1.2885   -0.5106 H   0  0  0  0  0  0  0  0  0  0  0  0
    0.3714    2.0456   -1.7479 H   0  0  0  0  0  0  0  0  0  0  0  0
    0.7228    2.3565    1.2768 H   0  0  0  0  0  0  0  0  0  0  0  0
   -0.0057    3.5763    0.2003 H   0  0  0  0  0  0  0  0  0  0  0  0
    1.8847    3.2883   -2.2066 H   0  0  0  0  0  0  0  0  0  0  0  0
    1.8089    3.8881   -3.9395 H   0  0  0  0  0  0  0  0  0  0  0  0
    1.7435    4.8648   -6.1944 H   0  0  0  0  0  0  0  0  0  0  0  0
    2.1411    7.2708   -6.5117 H   0  0  0  0  0  0  0  0  0  0  0  0
    2.6688    7.7561   -2.3002 H   0  0  0  0  0  0  0  0  0  0  0  0
    2.7667    8.6709   -6.6456 H   0  0  0  0  0  0  0  0  0  0  0  0
    1.1150   10.8208   -6.9721 H   0  0  0  0  0  0  0  0  0  0  0  0
    0.6188    9.8661   -4.0261 H   0  0  0  0  0  0  0  0  0  0  0  0
   -0.4392   11.0383   -4.9789 H   0  0  0  0  0  0  0  0  0  0  0  0
   -0.8564    9.2442   -6.7229 H   0  0  0  0  0  0  0  0  0  0  0  0
    0.2016    8.0719   -5.7704 H   0  0  0  0  0  0  0  0  0  0  0  0
    3.3074   11.5875   -5.8506 H   0  0  0  0  0  0  0  0  0  0  0  0
    4.4263    9.5963   -8.0001 H   0  0  0  0  0  0  0  0  0  0  0  0
    4.8589   11.3826   -7.8473 H   0  0  0  0  0  0  0  0  0  0  0  0
    5.7430   10.9683   -5.5061 H   0  0  0  0  0  0  0  0  0  0  0  0
    5.3103    9.1821   -5.6586 H   0  0  0  0  0  0  0  0  0  0  0  0
    6.7534   -1.0367    1.3967 O   0  5  0  0  0  0  0  0  0  0  0  0
  1  2  1  0  0  0  0
  1 32  1  0  0  0  0
  1 33  1  0  0  0  0
  1 34  1  0  0  0  0
  2  7  1  0  0  0  0
  2 11  1  0  0  0  0
  2  3  1  0  0  0  0
  3  4  1  0  0  0  0
  3 35  1  0  0  0  0
  3 36  1  0  0  0  0
  4  5  1  0  0  0  0
  4 37  1  0  0  0  0
  4 38  1  0  0  0  0
  5  6  2  0  0  0  0
  5 30  1  0  0  0  0
  6  7  1  0  0  0  0
  6 39  1  0  0  0  0
  7  8  2  0  0  0  0
  8  9  1  0  0  0  0
  8 40  1  0  0  0  0
  9 10  1  0  0  0  0
  9 41  1  0  0  0  0
  9 42  1  0  0  0  0
 10 11  1  0  0  0  0
 10 43  1  0  0  0  0
 10 44  1  0  0  0  0
 11 12  1  0  0  0  0
 11 13  1  0  0  0  0
 13 14  1  0  0  0  0
 13 45  1  0  0  0  0
 14 15  2  0  0  0  0
 14 16  1  0  0  0  0
 16 21  2  0  0  0  0
 16 17  1  0  0  0  0
 17 18  2  0  0  0  0
 17 46  1  0  0  0  0
 18 19  1  0  0  0  0
 18 47  1  0  0  0  0
 19 20  2  0  0  0  0
 19 48  1  0  0  0  0
 20 21  1  0  0  0  0
 20 22  1  0  0  0  0
 21 49  1  0  0  0  0
 22 23  1  0  0  0  0
 23 24  1  0  0  0  0
 23 27  1  0  0  0  0
 23 50  1  0  0  0  0
 24 26  1  0  0  0  0
 24 25  1  0  0  0  0
 24 51  1  0  0  0  0
 25 26  1  0  0  0  0
 25 52  1  0  0  0  0
 25 53  1  0  0  0  0
 26 54  1  0  0  0  0
 26 55  1  0  0  0  0
 27 29  1  0  0  0  0
 27 28  1  0  0  0  0
 27 56  1  0  0  0  0
 28 29  1  0  0  0  0
 28 57  1  0  0  0  0
 28 58  1  0  0  0  0
 29 59  1  0  0  0  0
 29 60  1  0  0  0  0
 30 31  2  0  0  0  0
 30 61  1  0  0  0  0
M  CHG  1  61  -1
M  END
$$$$
ZINC03799928
  -OEChem-08230709463D

 58 62  0     1  0  0  0  0  0999 V2000
    1.0344    5.8365    1.7249 C   0  0  0  0  0  0  0  0  0  0  0  0
    1.2206    5.7546    0.2085 C   0  0  2  0  0  0  0  0  0  0  0  0
   -0.0343    5.2258   -0.4636 C   0  0  0  0  0  0  0  0  0  0  0  0
   -0.2720    3.7590   -0.1798 C   0  0  0  0  0  0  0  0  0  0  0  0
    0.9446    2.8991   -0.1732 C   0  0  0  0  0  0  0  0  0  0  0  0
    2.2110    3.3727   -0.1386 C   0  0  0  0  0  0  0  0  0  0  0  0
    2.3746    4.8335   -0.1326 C   0  0  0  0  0  0  0  0  0  0  0  0
    3.4579    5.5322   -0.4370 C   0  0  0  0  0  0  0  0  0  0  0  0
    3.1773    7.0160   -0.3356 C   0  0  0  0  0  0  0  0  0  0  0  0
    1.6329    7.1263   -0.3550 C   0  0  2  0  0  0  0  0  0  0  0  0
    1.2631    7.2585   -1.3718 H   0  0  0  0  0  0  0  0  0  0  0  0
    1.1718    8.2117    0.5141 N   0  0  0  0  0  0  0  0  0  0  0  0
    0.9684    9.4428    0.0046 C   0  0  0  0  0  0  0  0  0  0  0  0
    1.1677    9.6525   -1.1760 O   0  0  0  0  0  0  0  0  0  0  0  0
    0.5030   10.5383    0.8818 C   0  0  0  0  0  0  0  0  0  0  0  0
    0.2734   10.3003    2.2381 C   0  0  0  0  0  0  0  0  0  0  0  0
   -0.1609   11.3247    3.0537 C   0  0  0  0  0  0  0  0  0  0  0  0
   -0.3700   12.5883    2.5321 C   0  0  0  0  0  0  0  0  0  0  0  0
   -0.1443   12.8346    1.1848 C   0  0  0  0  0  0  0  0  0  0  0  0
    0.2973   11.8148    0.3583 C   0  0  0  0  0  0  0  0  0  0  0  0
   -0.3510   14.0785    0.6778 O   0  0  0  0  0  0  0  0  0  0  0  0
   -0.9171   15.0519    1.5576 C   0  0  0  0  0  0  0  0  0  0  0  0
    0.1977   15.9246    2.1377 C   0  0  0  0  0  0  0  0  0  0  0  0
    1.6019   15.7579    1.5533 C   0  0  0  0  0  0  0  0  0  0  0  0
    1.2882   15.2277    2.9538 C   0  0  0  0  0  0  0  0  0  0  0  0
   -1.9006   15.9301    0.7815 C   0  0  0  0  0  0  0  0  0  0  0  0
   -3.3042   16.1046    1.3651 C   0  0  0  0  0  0  0  0  0  0  0  0
   -3.0952   15.2391    0.1208 C   0  0  0  0  0  0  0  0  0  0  0  0
    0.7632    1.4934   -0.2113 C   0  0  0  0  0  0  0  0  0  0  0  0
    1.7301    0.7552   -0.2122 O   0  0  0  0  0  0  0  0  0  0  0  0
    1.9537    6.1990    2.1848 H   0  0  0  0  0  0  0  0  0  0  0  0
    0.2185    6.5219    1.9543 H   0  0  0  0  0  0  0  0  0  0  0  0
    0.7983    4.8468    2.1159 H   0  0  0  0  0  0  0  0  0  0  0  0
   -0.8917    5.7986   -0.1103 H   0  0  0  0  0  0  0  0  0  0  0  0
    0.0594    5.3603   -1.5412 H   0  0  0  0  0  0  0  0  0  0  0  0
   -0.9609    3.3706   -0.9300 H   0  0  0  0  0  0  0  0  0  0  0  0
   -0.7537    3.6771    0.7945 H   0  0  0  0  0  0  0  0  0  0  0  0
    3.0624    2.7086   -0.1160 H   0  0  0  0  0  0  0  0  0  0  0  0
    4.4084    5.1032   -0.7179 H   0  0  0  0  0  0  0  0  0  0  0  0
    3.6064    7.5428   -1.1879 H   0  0  0  0  0  0  0  0  0  0  0  0
    3.5749    7.4166    0.5969 H   0  0  0  0  0  0  0  0  0  0  0  0
    1.0127    8.0444    1.4562 H   0  0  0  0  0  0  0  0  0  0  0  0
    0.4353    9.3145    2.6485 H   0  0  0  0  0  0  0  0  0  0  0  0
   -0.3379   11.1394    4.1028 H   0  0  0  0  0  0  0  0  0  0  0  0
   -0.7096   13.3865    3.1755 H   0  0  0  0  0  0  0  0  0  0  0  0
    0.4778   12.0062   -0.6891 H   0  0  0  0  0  0  0  0  0  0  0  0
   -1.4424   14.5470    2.3683 H   0  0  0  0  0  0  0  0  0  0  0  0
   -0.1025   16.9250    2.4496 H   0  0  0  0  0  0  0  0  0  0  0  0
    1.7314   15.0266    0.7556 H   0  0  0  0  0  0  0  0  0  0  0  0
    2.2257   16.6488    1.4805 H   0  0  0  0  0  0  0  0  0  0  0  0
    1.7057   15.7697    3.8023 H   0  0  0  0  0  0  0  0  0  0  0  0
    1.2115   14.1474    3.0774 H   0  0  0  0  0  0  0  0  0  0  0  0
   -1.4616   16.7820    0.2623 H   0  0  0  0  0  0  0  0  0  0  0  0
   -3.5269   15.5937    2.3018 H   0  0  0  0  0  0  0  0  0  0  0  0
   -3.7888   17.0715    1.2299 H   0  0  0  0  0  0  0  0  0  0  0  0
   -3.4422   15.6367   -0.8329 H   0  0  0  0  0  0  0  0  0  0  0  0
   -3.1803   14.1589    0.2390 H   0  0  0  0  0  0  0  0  0  0  0  0
   -0.4818    0.9745   -0.2467 O   0  5  0  0  0  0  0  0  0  0  0  0
  1  2  1  0  0  0  0
  1 31  1  0  0  0  0
  1 32  1  0  0  0  0
  1 33  1  0  0  0  0
  2  7  1  0  0  0  0
  2 10  1  0  0  0  0
  2  3  1  0  0  0  0
  3  4  1  0  0  0  0
  3 34  1  0  0  0  0
  3 35  1  0  0  0  0
  4  5  1  0  0  0  0
  4 36  1  0  0  0  0
  4 37  1  0  0  0  0
  5  6  2  0  0  0  0
  5 29  1  0  0  0  0
  6  7  1  0  0  0  0
  6 38  1  0  0  0  0
  7  8  2  0  0  0  0
  8  9  1  0  0  0  0
  8 39  1  0  0  0  0
  9 10  1  0  0  0  0
  9 40  1  0  0  0  0
  9 41  1  0  0  0  0
 10 11  1  0  0  0  0
 10 12  1  0  0  0  0
 12 13  1  0  0  0  0
 12 42  1  0  0  0  0
 13 14  2  0  0  0  0
 13 15  1  0  0  0  0
 15 20  2  0  0  0  0
 15 16  1  0  0  0  0
 16 17  2  0  0  0  0
 16 43  1  0  0  0  0
 17 18  1  0  0  0  0
 17 44  1  0  0  0  0
 18 19  2  0  0  0  0
 18 45  1  0  0  0  0
 19 20  1  0  0  0  0
 19 21  1  0  0  0  0
 20 46  1  0  0  0  0
 21 22  1  0  0  0  0
 22 23  1  0  0  0  0
 22 26  1  0  0  0  0
 22 47  1  0  0  0  0
 23 25  1  0  0  0  0
 23 24  1  0  0  0  0
 23 48  1  0  0  0  0
 24 25  1  0  0  0  0
 24 49  1  0  0  0  0
 24 50  1  0  0  0  0
 25 51  1  0  0  0  0
 25 52  1  0  0  0  0
 26 28  1  0  0  0  0
 26 27  1  0  0  0  0
 26 53  1  0  0  0  0
 27 28  1  0  0  0  0
 27 54  1  0  0  0  0
 27 55  1  0  0  0  0
 28 56  1  0  0  0  0
 28 57  1  0  0  0  0
 29 30  2  0  0  0  0
 29 58  1  0  0  0  0
M  CHG  1  58  -1
M  END
$$$$
ZINC03800726
  -OEChem-08230709463D

 53 54  0     0  0  0  0  0  0999 V2000
   -2.4688    0.2036    0.0267 C   0  0  0  0  0  0  0  0  0  0  0  0
   -1.2928   -0.7750    0.0102 C   0  0  0  0  0  0  0  0  0  0  0  0
   -1.3740   -1.6489   -1.2430 C   0  0  0  0  0  0  0  0  0  0  0  0
   -1.3502   -1.6623    1.2553 C   0  0  0  0  0  0  0  0  0  0  0  0
    0.0021   -0.0041    0.0020 C   0  0  0  0  0  0  0  0  0  0  0  0
   -0.0167    1.3767    0.0096 C   0  0  0  0  0  0  0  0  0  0  0  0
    1.1772    2.0871    0.0020 C   0  0  0  0  0  0  0  0  0  0  0  0
    2.3886    1.4073   -0.0127 C   0  0  0  0  0  0  0  0  0  0  0  0
    2.4049    0.0266   -0.0212 C   0  0  0  0  0  0  0  0  0  0  0  0
    1.2123   -0.6817   -0.0136 C   0  0  0  0  0  0  0  0  0  0  0  0
    1.2296   -2.0416   -0.0211 O   0  0  0  0  0  0  0  0  0  0  0  0
    3.7190   -0.7111   -0.0382 C   0  0  0  0  0  0  0  0  0  0  0  0
    4.8698    0.2971   -0.0437 C   0  0  0  0  0  0  0  0  0  0  0  0
    3.8228   -1.5968    1.2050 C   0  0  0  0  0  0  0  0  0  0  0  0
    3.7984   -1.5825   -1.2933 C   0  0  0  0  0  0  0  0  0  0  0  0
    1.1548    3.8489    0.0111 S   0  0  0  0  0  0  0  0  0  0  0  0
    2.9091    4.3101   -0.0030 C   0  0  0  0  0  0  0  0  0  0  0  0
    3.0337    5.8120    0.0034 C   0  0  0  0  0  0  0  0  0  0  0  0
    3.0852    6.5038   -1.1937 C   0  0  0  0  0  0  0  0  0  0  0  0
    3.1944    7.8790   -1.1951 C   0  0  0  0  0  0  0  0  0  0  0  0
    3.2637    8.5717    0.0152 C   0  0  0  0  0  0  0  0  0  0  0  0
    3.2165    7.8668    1.2196 C   0  0  0  0  0  0  0  0  0  0  0  0
    3.1019    6.4922    1.2064 C   0  0  0  0  0  0  0  0  0  0  0  0
    3.3858   10.0439    0.0215 C   0  0  0  0  0  0  0  0  0  0  0  0
    3.4455   10.6439    1.0760 O   0  0  0  0  0  0  0  0  0  0  0  0
   -2.4280    0.8357   -0.8603 H   0  0  0  0  0  0  0  0  0  0  0  0
   -3.4054   -0.3540    0.0327 H   0  0  0  0  0  0  0  0  0  0  0  0
   -2.4110    0.8262    0.9196 H   0  0  0  0  0  0  0  0  0  0  0  0
   -0.5362   -2.3460   -1.2547 H   0  0  0  0  0  0  0  0  0  0  0  0
   -2.3106   -2.2065   -1.2370 H   0  0  0  0  0  0  0  0  0  0  0  0
   -1.3331   -1.0167   -2.1300 H   0  0  0  0  0  0  0  0  0  0  0  0
   -1.2923   -1.0397    2.1482 H   0  0  0  0  0  0  0  0  0  0  0  0
   -2.2867   -2.2199    1.2613 H   0  0  0  0  0  0  0  0  0  0  0  0
   -0.5123   -2.3594    1.2436 H   0  0  0  0  0  0  0  0  0  0  0  0
   -0.9591    1.9041    0.0169 H   0  0  0  0  0  0  0  0  0  0  0  0
    3.3173    1.9586   -0.0179 H   0  0  0  0  0  0  0  0  0  0  0  0
    1.2258   -2.4302   -0.9066 H   0  0  0  0  0  0  0  0  0  0  0  0
    4.8132    0.9180    0.8504 H   0  0  0  0  0  0  0  0  0  0  0  0
    5.8202   -0.2364   -0.0560 H   0  0  0  0  0  0  0  0  0  0  0  0
    4.7958    0.9281   -0.9294 H   0  0  0  0  0  0  0  0  0  0  0  0
    3.0029   -2.3150    1.2089 H   0  0  0  0  0  0  0  0  0  0  0  0
    4.7732   -2.1303    1.1927 H   0  0  0  0  0  0  0  0  0  0  0  0
    3.7662   -0.9759    2.0992 H   0  0  0  0  0  0  0  0  0  0  0  0
    3.7245   -0.9515   -2.1790 H   0  0  0  0  0  0  0  0  0  0  0  0
    4.7488   -2.1160   -1.3056 H   0  0  0  0  0  0  0  0  0  0  0  0
    2.9786   -2.3008   -1.2894 H   0  0  0  0  0  0  0  0  0  0  0  0
    3.3994    3.9011    0.8804 H   0  0  0  0  0  0  0  0  0  0  0  0
    3.3828    3.9101   -0.8994 H   0  0  0  0  0  0  0  0  0  0  0  0
    3.0356    5.9664   -2.1292 H   0  0  0  0  0  0  0  0  0  0  0  0
    3.2299    8.4182   -2.1302 H   0  0  0  0  0  0  0  0  0  0  0  0
    3.2693    8.3966    2.1592 H   0  0  0  0  0  0  0  0  0  0  0  0
    3.0650    5.9457    2.1372 H   0  0  0  0  0  0  0  0  0  0  0  0
    3.4311   10.7210   -1.1422 O   0  5  0  0  0  0  0  0  0  0  0  0
  1  2  1  0  0  0  0
  1 26  1  0  0  0  0
  1 27  1  0  0  0  0
  1 28  1  0  0  0  0
  2  3  1  0  0  0  0
  2  4  1  0  0  0  0
  2  5  1  0  0  0  0
  3 29  1  0  0  0  0
  3 30  1  0  0  0  0
  3 31  1  0  0  0  0
  4 32  1  0  0  0  0
  4 33  1  0  0  0  0
  4 34  1  0  0  0  0
  5 10  2  0  0  0  0
  5  6  1  0  0  0  0
  6  7  2  0  0  0  0
  6 35  1  0  0  0  0
  7  8  1  0  0  0  0
  7 16  1  0  0  0  0
  8  9  2  0  0  0  0
  8 36  1  0  0  0  0
  9 10  1  0  0  0  0
  9 12  1  0  0  0  0
 10 11  1  0  0  0  0
 11 37  1  0  0  0  0
 12 13  1  0  0  0  0
 12 14  1  0  0  0  0
 12 15  1  0  0  0  0
 13 38  1  0  0  0  0
 13 39  1  0  0  0  0
 13 40  1  0  0  0  0
 14 41  1  0  0  0  0
 14 42  1  0  0  0  0
 14 43  1  0  0  0  0
 15 44  1  0  0  0  0
 15 45  1  0  0  0  0
 15 46  1  0  0  0  0
 16 17  1  0  0  0  0
 17 18  1  0  0  0  0
 17 47  1  0  0  0  0
 17 48  1  0  0  0  0
 18 23  2  0  0  0  0
 18 19  1  0  0  0  0
 19 20  2  0  0  0  0
 19 49  1  0  0  0  0
 20 21  1  0  0  0  0
 20 50  1  0  0  0  0
 21 22  2  0  0  0  0
 21 24  1  0  0  0  0
 22 23  1  0  0  0  0
 22 51  1  0  0  0  0
 23 52  1  0  0  0  0
 24 25  2  0  0  0  0
 24 53  1  0  0  0  0
M  CHG  1  53  -1
M  END
$$$$
ZINC03801973
  -OEChem-08230709463D

 58 61  0     1  0  0  0  0  0999 V2000
    2.9670   11.2439    4.0359 C   0  0  0  0  0  0  0  0  0  0  0  0
    1.6497   11.3450    3.2643 C   0  0  0  0  0  0  0  0  0  0  0  0
    1.4194   12.7957    2.8363 C   0  0  0  0  0  0  0  0  0  0  0  0
    1.7153   10.4516    2.0240 C   0  0  0  0  0  0  0  0  0  0  0  0
    1.8190    9.0094    2.4486 C   0  0  0  0  0  0  0  0  0  0  0  0
    1.8384    8.7253    3.6221 O   0  0  0  0  0  0  0  0  0  0  0  0
    1.8984    7.9216    1.4086 C   0  0  1  0  0  0  0  0  0  0  0  0
    2.3598    8.2725    0.5938 H   0  0  0  0  0  0  0  0  0  0  0  0
    2.6227    6.6702    1.9765 C   0  0  0  0  0  0  0  0  0  0  0  0
    1.8882    5.4380    1.3923 C   0  0  0  0  0  0  0  0  0  0  0  0
    0.8361    6.0060    0.4462 C   0  0  2  0  0  0  0  0  0  0  0  0
    1.2665    6.1424   -0.5459 H   0  0  0  0  0  0  0  0  0  0  0  0
    0.5017    7.3877    1.0749 C   0  0  2  0  0  0  0  0  0  0  0  0
   -0.2886    8.1811    0.0529 C   0  0  0  0  0  0  0  0  0  0  0  0
   -1.6130    7.4345   -0.1950 C   0  0  0  0  0  0  0  0  0  0  0  0
   -1.3485    6.0100   -0.6600 C   0  0  1  0  0  0  0  0  0  0  0  0
   -0.8117    6.0611   -1.6073 H   0  0  0  0  0  0  0  0  0  0  0  0
   -0.4685    5.2476    0.3391 C   0  0  1  0  0  0  0  0  0  0  0  0
   -0.9493    5.2026    1.3163 H   0  0  0  0  0  0  0  0  0  0  0  0
   -0.2633    3.8321   -0.2005 C   0  0  0  0  0  0  0  0  0  0  0  0
   -1.5924    3.0846   -0.0972 C   0  0  0  0  0  0  0  0  0  0  0  0
   -2.7241    3.8997   -0.6661 C   0  0  0  0  0  0  0  0  0  0  0  0
   -2.6217    5.2552   -0.9109 C   0  0  0  0  0  0  0  0  0  0  0  0
   -3.7100    5.9537   -1.4190 C   0  0  0  0  0  0  0  0  0  0  0  0
   -4.8947    5.3087   -1.6951 C   0  0  0  0  0  0  0  0  0  0  0  0
   -5.0037    3.9370   -1.4586 C   0  0  0  0  0  0  0  0  0  0  0  0
   -3.9126    3.2415   -0.9418 C   0  0  0  0  0  0  0  0  0  0  0  0
   -6.2657    3.2285   -1.7545 C   0  0  0  0  0  0  0  0  0  0  0  0
   -6.3554    2.0351   -1.5469 O   0  0  0  0  0  0  0  0  0  0  0  0
   -0.3077    7.1980    2.3594 C   0  0  0  0  0  0  0  0  0  0  0  0
    3.1311   10.2103    4.3408 H   0  0  0  0  0  0  0  0  0  0  0  0
    3.7882   11.5689    3.3970 H   0  0  0  0  0  0  0  0  0  0  0  0
    2.9203   11.8803    4.9196 H   0  0  0  0  0  0  0  0  0  0  0  0
    0.8286   11.0199    3.9032 H   0  0  0  0  0  0  0  0  0  0  0  0
    0.4809   12.8677    2.2867 H   0  0  0  0  0  0  0  0  0  0  0  0
    1.3727   13.4322    3.7200 H   0  0  0  0  0  0  0  0  0  0  0  0
    2.2405   13.1208    2.1975 H   0  0  0  0  0  0  0  0  0  0  0  0
    2.5167   10.6969    1.4785 H   0  0  0  0  0  0  0  0  0  0  0  0
    0.8135   10.5909    1.4278 H   0  0  0  0  0  0  0  0  0  0  0  0
    2.5590    6.6627    3.0646 H   0  0  0  0  0  0  0  0  0  0  0  0
    3.6664    6.6674    1.6623 H   0  0  0  0  0  0  0  0  0  0  0  0
    1.4108    4.8695    2.1904 H   0  0  0  0  0  0  0  0  0  0  0  0
    2.5864    4.8052    0.8444 H   0  0  0  0  0  0  0  0  0  0  0  0
   -0.4938    9.1798    0.4384 H   0  0  0  0  0  0  0  0  0  0  0  0
    0.2756    8.2516   -0.8771 H   0  0  0  0  0  0  0  0  0  0  0  0
   -2.1894    7.4091    0.7298 H   0  0  0  0  0  0  0  0  0  0  0  0
   -2.1842    7.9609   -0.9597 H   0  0  0  0  0  0  0  0  0  0  0  0
    0.4943    3.3189    0.3918 H   0  0  0  0  0  0  0  0  0  0  0  0
    0.0528    3.8781   -1.2427 H   0  0  0  0  0  0  0  0  0  0  0  0
   -1.7998    2.8684    0.9508 H   0  0  0  0  0  0  0  0  0  0  0  0
   -1.5175    2.1458   -0.6461 H   0  0  0  0  0  0  0  0  0  0  0  0
   -3.6242    7.0143   -1.6037 H   0  0  0  0  0  0  0  0  0  0  0  0
   -5.7343    5.8602   -2.0917 H   0  0  0  0  0  0  0  0  0  0  0  0
   -3.9934    2.1808   -0.7549 H   0  0  0  0  0  0  0  0  0  0  0  0
    0.2431    6.5532    3.0441 H   0  0  0  0  0  0  0  0  0  0  0  0
   -0.4761    8.1671    2.8291 H   0  0  0  0  0  0  0  0  0  0  0  0
   -1.2668    6.7387    2.1200 H   0  0  0  0  0  0  0  0  0  0  0  0
   -7.3173    3.9061   -2.2545 O   0  5  0  0  0  0  0  0  0  0  0  0
  1  2  1  0  0  0  0
  1 31  1  0  0  0  0
  1 32  1  0  0  0  0
  1 33  1  0  0  0  0
  2  3  1  0  0  0  0
  2  4  1  0  0  0  0
  2 34  1  0  0  0  0
  3 35  1  0  0  0  0
  3 36  1  0  0  0  0
  3 37  1  0  0  0  0
  4  5  1  0  0  0  0
  4 38  1  0  0  0  0
  4 39  1  0  0  0  0
  5  6  2  0  0  0  0
  5  7  1  0  0  0  0
  7  8  1  0  0  0  0
  7 13  1  0  0  0  0
  7  9  1  0  0  0  0
  9 10  1  0  0  0  0
  9 40  1  0  0  0  0
  9 41  1  0  0  0  0
 10 11  1  0  0  0  0
 10 42  1  0  0  0  0
 10 43  1  0  0  0  0
 11 12  1  0  0  0  0
 11 18  1  0  0  0  0
 11 13  1  0  0  0  0
 13 14  1  0  0  0  0
 13 30  1  0  0  0  0
 14 15  1  0  0  0  0
 14 44  1  0  0  0  0
 14 45  1  0  0  0  0
 15 16  1  0  0  0  0
 15 46  1  0  0  0  0
 15 47  1  0  0  0  0
 16 17  1  0  0  0  0
 16 23  1  0  0  0  0
 16 18  1  0  0  0  0
 18 19  1  0  0  0  0
 18 20  1  0  0  0  0
 20 21  1  0  0  0  0
 20 48  1  0  0  0  0
 20 49  1  0  0  0  0
 21 22  1  0  0  0  0
 21 50  1  0  0  0  0
 21 51  1  0  0  0  0
 22 27  2  0  0  0  0
 22 23  1  0  0  0  0
 23 24  2  0  0  0  0
 24 25  1  0  0  0  0
 24 52  1  0  0  0  0
 25 26  2  0  0  0  0
 25 53  1  0  0  0  0
 26 27  1  0  0  0  0
 26 28  1  0  0  0  0
 27 54  1  0  0  0  0
 28 29  2  0  0  0  0
 28 58  1  0  0  0  0
 30 55  1  0  0  0  0
 30 56  1  0  0  0  0
 30 57  1  0  0  0  0
M  CHG  1  58  -1
M  END
$$$$
ZINC03803448
  -OEChem-08230709463D

 61 65  0     1  0  0  0  0  0999 V2000
    0.2066    7.9196   -0.1728 C   0  0  0  0  0  0  0  0  0  0  0  0
   -1.2098    7.3962   -0.4197 C   0  0  2  0  0  0  0  0  0  0  0  0
   -1.5490    7.5003   -1.8955 C   0  0  0  0  0  0  0  0  0  0  0  0
   -1.3133    8.9608   -2.3063 C   0  0  0  0  0  0  0  0  0  0  0  0
   -2.1444    9.9343   -1.4749 C   0  0  1  0  0  0  0  0  0  0  0  0
   -3.1996    9.8113   -1.7190 H   0  0  0  0  0  0  0  0  0  0  0  0
   -1.9389    9.7197    0.0361 C   0  0  2  0  0  0  0  0  0  0  0  0
   -0.9147    9.9613    0.3202 H   0  0  0  0  0  0  0  0  0  0  0  0
   -2.2475    8.2634    0.3404 C   0  0  2  0  0  0  0  0  0  0  0  0
   -3.2584    8.0159    0.0165 H   0  0  0  0  0  0  0  0  0  0  0  0
   -2.0179    7.8253    1.7913 C   0  0  0  0  0  0  0  0  0  0  0  0
   -1.8414    6.2874    1.6661 C   0  0  0  0  0  0  0  0  0  0  0  0
   -1.3723    6.0181    0.2147 C   0  0  2  0  0  0  0  0  0  0  0  0
   -2.0452    5.4900   -0.3032 H   0  0  0  0  0  0  0  0  0  0  0  0
   -0.0546    5.2868    0.2191 C   0  0  0  0  0  0  0  0  0  0  0  0
    0.6940    5.3921    1.1671 O   0  0  0  0  0  0  0  0  0  0  0  0
    0.3235    4.4448   -0.9271 C   0  0  0  0  0  0  0  0  0  0  0  0
    1.5454    3.7645   -0.9268 C   0  0  0  0  0  0  0  0  0  0  0  0
    1.8927    2.9779   -2.0047 C   0  0  0  0  0  0  0  0  0  0  0  0
    1.0358    2.8611   -3.0853 C   0  0  0  0  0  0  0  0  0  0  0  0
   -0.1728    3.5353   -3.0955 C   0  0  0  0  0  0  0  0  0  0  0  0
   -0.5370    4.3212   -2.0226 C   0  0  0  0  0  0  0  0  0  0  0  0
   -2.9296   10.6172    0.7863 C   0  0  0  0  0  0  0  0  0  0  0  0
   -2.8769   12.0191    0.2614 C   0  0  0  0  0  0  0  0  0  0  0  0
   -2.3354   12.3526   -0.8974 C   0  0  0  0  0  0  0  0  0  0  0  0
   -1.7045   11.3627   -1.8158 C   0  0  2  0  0  0  0  0  0  0  0  0
   -2.0175   11.6648   -3.2735 C   0  0  0  0  0  0  0  0  0  0  0  0
   -3.0832   12.7382   -3.4346 C   0  0  0  0  0  0  0  0  0  0  0  0
   -2.7440   13.9642   -2.6229 C   0  0  0  0  0  0  0  0  0  0  0  0
   -2.3546   13.7670   -1.3252 C   0  0  0  0  0  0  0  0  0  0  0  0
   -2.7925   15.2639   -3.1875 C   0  0  0  0  0  0  0  0  0  0  0  0
   -2.5134   16.2332   -2.5077 O   0  0  0  0  0  0  0  0  0  0  0  0
   -0.1888   11.4578   -1.6299 C   0  0  0  0  0  0  0  0  0  0  0  0
    0.9229    7.2955   -0.7071 H   0  0  0  0  0  0  0  0  0  0  0  0
    0.2819    8.9466   -0.5302 H   0  0  0  0  0  0  0  0  0  0  0  0
    0.4240    7.8896    0.8949 H   0  0  0  0  0  0  0  0  0  0  0  0
   -0.9007    6.8419   -2.4737 H   0  0  0  0  0  0  0  0  0  0  0  0
   -2.5930    7.2321   -2.0572 H   0  0  0  0  0  0  0  0  0  0  0  0
   -0.2573    9.1983   -2.1784 H   0  0  0  0  0  0  0  0  0  0  0  0
   -1.5776    9.0798   -3.3571 H   0  0  0  0  0  0  0  0  0  0  0  0
   -1.1160    8.2854    2.1950 H   0  0  0  0  0  0  0  0  0  0  0  0
   -2.8826    8.0680    2.4089 H   0  0  0  0  0  0  0  0  0  0  0  0
   -2.7910    5.7855    1.8515 H   0  0  0  0  0  0  0  0  0  0  0  0
   -1.0889    5.9384    2.3733 H   0  0  0  0  0  0  0  0  0  0  0  0
    2.2154    3.8553   -0.0846 H   0  0  0  0  0  0  0  0  0  0  0  0
    2.8360    2.4520   -2.0060 H   0  0  0  0  0  0  0  0  0  0  0  0
    1.3138    2.2440   -3.9270 H   0  0  0  0  0  0  0  0  0  0  0  0
   -0.8341    3.4426   -3.9443 H   0  0  0  0  0  0  0  0  0  0  0  0
   -1.4822    4.8437   -2.0304 H   0  0  0  0  0  0  0  0  0  0  0  0
   -3.9381   10.2238    0.6586 H   0  0  0  0  0  0  0  0  0  0  0  0
   -2.6777   10.6219    1.8468 H   0  0  0  0  0  0  0  0  0  0  0  0
   -3.3072   12.8041    0.8655 H   0  0  0  0  0  0  0  0  0  0  0  0
   -1.1049   11.9980   -3.7677 H   0  0  0  0  0  0  0  0  0  0  0  0
   -2.3648   10.7510   -3.7556 H   0  0  0  0  0  0  0  0  0  0  0  0
   -3.1567   13.0145   -4.4864 H   0  0  0  0  0  0  0  0  0  0  0  0
   -4.0427   12.3426   -3.1015 H   0  0  0  0  0  0  0  0  0  0  0  0
   -2.1061   14.5797   -0.6588 H   0  0  0  0  0  0  0  0  0  0  0  0
    0.3082   10.8341   -2.3729 H   0  0  0  0  0  0  0  0  0  0  0  0
    0.1282   12.4933   -1.7541 H   0  0  0  0  0  0  0  0  0  0  0  0
    0.0770   11.1138   -0.6304 H   0  0  0  0  0  0  0  0  0  0  0  0
   -3.1484   15.4255   -4.4790 O   0  5  0  0  0  0  0  0  0  0  0  0
  1  2  1  0  0  0  0
  1 34  1  0  0  0  0
  1 35  1  0  0  0  0
  1 36  1  0  0  0  0
  2  9  1  0  0  0  0
  2 13  1  0  0  0  0
  2  3  1  0  0  0  0
  3  4  1  0  0  0  0
  3 37  1  0  0  0  0
  3 38  1  0  0  0  0
  4  5  1  0  0  0  0
  4 39  1  0  0  0  0
  4 40  1  0  0  0  0
  5  6  1  0  0  0  0
  5 26  1  0  0  0  0
  5  7  1  0  0  0  0
  7  8  1  0  0  0  0
  7  9  1  0  0  0  0
  7 23  1  0  0  0  0
  9 10  1  0  0  0  0
  9 11  1  0  0  0  0
 11 12  1  0  0  0  0
 11 41  1  0  0  0  0
 11 42  1  0  0  0  0
 12 13  1  0  0  0  0
 12 43  1  0  0  0  0
 12 44  1  0  0  0  0
 13 14  1  0  0  0  0
 13 15  1  0  0  0  0
 15 16  2  0  0  0  0
 15 17  1  0  0  0  0
 17 22  2  0  0  0  0
 17 18  1  0  0  0  0
 18 19  2  0  0  0  0
 18 45  1  0  0  0  0
 19 20  1  0  0  0  0
 19 46  1  0  0  0  0
 20 21  2  0  0  0  0
 20 47  1  0  0  0  0
 21 22  1  0  0  0  0
 21 48  1  0  0  0  0
 22 49  1  0  0  0  0
 23 24  1  0  0  0  0
 23 50  1  0  0  0  0
 23 51  1  0  0  0  0
 24 25  2  0  0  0  0
 24 52  1  0  0  0  0
 25 30  1  0  0  0  0
 25 26  1  0  0  0  0
 26 27  1  0  0  0  0
 26 33  1  0  0  0  0
 27 28  1  0  0  0  0
 27 53  1  0  0  0  0
 27 54  1  0  0  0  0
 28 29  1  0  0  0  0
 28 55  1  0  0  0  0
 28 56  1  0  0  0  0
 29 30  2  0  0  0  0
 29 31  1  0  0  0  0
 30 57  1  0  0  0  0
 31 32  2  0  0  0  0
 31 61  1  0  0  0  0
 33 58  1  0  0  0  0
 33 59  1  0  0  0  0
 33 60  1  0  0  0  0
M  CHG  1  61  -1
M  END
$$$$
ZINC03803458
  -OEChem-08230709463D

 63 66  0     1  0  0  0  0  0999 V2000
   -4.4882   -1.0207    4.9329 C   0  0  0  0  0  0  0  0  0  0  0  0
   -4.5598   -1.0821    3.4058 C   0  0  0  0  0  0  0  0  0  0  0  0
   -6.0246   -1.1080    2.9646 C   0  0  0  0  0  0  0  0  0  0  0  0
   -3.8703    0.1483    2.8130 C   0  0  0  0  0  0  0  0  0  0  0  0
   -2.4008    0.1095    3.1450 C   0  0  0  0  0  0  0  0  0  0  0  0
   -1.9515   -0.8077    3.7893 O   0  0  0  0  0  0  0  0  0  0  0  0
   -1.4922    1.2152    2.6730 C   0  0  1  0  0  0  0  0  0  0  0  0
   -1.9873    2.0838    2.6906 H   0  0  0  0  0  0  0  0  0  0  0  0
   -0.1925    1.2915    3.5809 C   0  0  0  0  0  0  0  0  0  0  0  0
    1.0156    1.1126    2.6213 C   0  0  0  0  0  0  0  0  0  0  0  0
    0.4473    1.5572    1.2693 C   0  0  2  0  0  0  0  0  0  0  0  0
    0.3672    2.6433    1.2227 H   0  0  0  0  0  0  0  0  0  0  0  0
   -0.9771    0.9128    1.2689 C   0  0  2  0  0  0  0  0  0  0  0  0
   -1.7499    1.5389    0.1221 C   0  0  0  0  0  0  0  0  0  0  0  0
   -1.0521    1.1101   -1.1764 C   0  0  0  0  0  0  0  0  0  0  0  0
    0.4170    1.5243   -1.2048 C   0  0  1  0  0  0  0  0  0  0  0  0
    0.4857    2.6104   -1.2654 H   0  0  0  0  0  0  0  0  0  0  0  0
    1.1727    1.0314    0.0432 C   0  0  1  0  0  0  0  0  0  0  0  0
    1.2129   -0.0577    0.0606 H   0  0  0  0  0  0  0  0  0  0  0  0
    2.5872    1.6207    0.0127 C   0  0  0  0  0  0  0  0  0  0  0  0
    3.2240    1.4047   -1.3254 C   0  0  0  0  0  0  0  0  0  0  0  0
    2.5523    1.0879   -2.4186 C   0  0  0  0  0  0  0  0  0  0  0  0
    1.0649    0.8906   -2.4407 C   0  0  2  0  0  0  0  0  0  0  0  0
    0.4412    1.4831   -3.6961 C   0  0  0  0  0  0  0  0  0  0  0  0
    1.4260    2.3162   -4.5023 C   0  0  0  0  0  0  0  0  0  0  0  0
    2.6969    1.5467   -4.7665 C   0  0  0  0  0  0  0  0  0  0  0  0
    3.2820    0.9185   -3.6926 C   0  0  0  0  0  0  0  0  0  0  0  0
    3.2594    1.4665   -6.0655 C   0  0  0  0  0  0  0  0  0  0  0  0
    4.2852    0.8382   -6.2464 O   0  0  0  0  0  0  0  0  0  0  0  0
    0.7761   -0.6117   -2.4205 C   0  0  0  0  0  0  0  0  0  0  0  0
   -0.8628   -0.5981    1.0566 C   0  0  0  0  0  0  0  0  0  0  0  0
   -4.9794   -1.8973    5.3552 H   0  0  0  0  0  0  0  0  0  0  0  0
   -3.4446   -1.0023    5.2472 H   0  0  0  0  0  0  0  0  0  0  0  0
   -4.9894   -0.1188    5.2841 H   0  0  0  0  0  0  0  0  0  0  0  0
   -4.0586   -1.9840    3.0545 H   0  0  0  0  0  0  0  0  0  0  0  0
   -6.0757   -1.1517    1.8767 H   0  0  0  0  0  0  0  0  0  0  0  0
   -6.5158   -1.9846    3.3869 H   0  0  0  0  0  0  0  0  0  0  0  0
   -6.5259   -0.2061    3.3159 H   0  0  0  0  0  0  0  0  0  0  0  0
   -4.2773    0.9765    3.1983 H   0  0  0  0  0  0  0  0  0  0  0  0
   -3.9983    0.1503    1.7305 H   0  0  0  0  0  0  0  0  0  0  0  0
   -0.2029    0.4925    4.3222 H   0  0  0  0  0  0  0  0  0  0  0  0
   -0.1361    2.2606    4.0767 H   0  0  0  0  0  0  0  0  0  0  0  0
    1.3275    0.0688    2.5842 H   0  0  0  0  0  0  0  0  0  0  0  0
    1.8446    1.7537    2.9210 H   0  0  0  0  0  0  0  0  0  0  0  0
   -1.7336    2.6251    0.2119 H   0  0  0  0  0  0  0  0  0  0  0  0
   -2.7795    1.1811    0.1267 H   0  0  0  0  0  0  0  0  0  0  0  0
   -1.5653    1.5683   -2.0219 H   0  0  0  0  0  0  0  0  0  0  0  0
   -1.1160    0.0259   -1.2696 H   0  0  0  0  0  0  0  0  0  0  0  0
    2.5347    2.6902    0.2166 H   0  0  0  0  0  0  0  0  0  0  0  0
    3.1933    1.1387    0.7798 H   0  0  0  0  0  0  0  0  0  0  0  0
    4.2958    1.5139   -1.4015 H   0  0  0  0  0  0  0  0  0  0  0  0
    0.0714    0.6712   -4.3224 H   0  0  0  0  0  0  0  0  0  0  0  0
   -0.3987    2.1150   -3.4075 H   0  0  0  0  0  0  0  0  0  0  0  0
    0.9689    2.5897   -5.4533 H   0  0  0  0  0  0  0  0  0  0  0  0
    1.6656    3.2233   -3.9474 H   0  0  0  0  0  0  0  0  0  0  0  0
    4.2035    0.3600   -3.7659 H   0  0  0  0  0  0  0  0  0  0  0  0
    1.0818   -1.0276   -1.4604 H   0  0  0  0  0  0  0  0  0  0  0  0
   -0.2913   -0.7785   -2.5654 H   0  0  0  0  0  0  0  0  0  0  0  0
    1.3320   -1.0994   -3.2213 H   0  0  0  0  0  0  0  0  0  0  0  0
   -0.3553   -0.7949    0.1122 H   0  0  0  0  0  0  0  0  0  0  0  0
   -0.2917   -1.0377    1.8744 H   0  0  0  0  0  0  0  0  0  0  0  0
   -1.8597   -1.0380    1.0320 H   0  0  0  0  0  0  0  0  0  0  0  0
    2.6568    2.0869   -7.1012 O   0  5  0  0  0  0  0  0  0  0  0  0
  1  2  1  0  0  0  0
  1 32  1  0  0  0  0
  1 33  1  0  0  0  0
  1 34  1  0  0  0  0
  2  3  1  0  0  0  0
  2  4  1  0  0  0  0
  2 35  1  0  0  0  0
  3 36  1  0  0  0  0
  3 37  1  0  0  0  0
  3 38  1  0  0  0  0
  4  5  1  0  0  0  0
  4 39  1  0  0  0  0
  4 40  1  0  0  0  0
  5  6  2  0  0  0  0
  5  7  1  0  0  0  0
  7  8  1  0  0  0  0
  7 13  1  0  0  0  0
  7  9  1  0  0  0  0
  9 10  1  0  0  0  0
  9 41  1  0  0  0  0
  9 42  1  0  0  0  0
 10 11  1  0  0  0  0
 10 43  1  0  0  0  0
 10 44  1  0  0  0  0
 11 12  1  0  0  0  0
 11 18  1  0  0  0  0
 11 13  1  0  0  0  0
 13 14  1  0  0  0  0
 13 31  1  0  0  0  0
 14 15  1  0  0  0  0
 14 45  1  0  0  0  0
 14 46  1  0  0  0  0
 15 16  1  0  0  0  0
 15 47  1  0  0  0  0
 15 48  1  0  0  0  0
 16 17  1  0  0  0  0
 16 23  1  0  0  0  0
 16 18  1  0  0  0  0
 18 19  1  0  0  0  0
 18 20  1  0  0  0  0
 20 21  1  0  0  0  0
 20 49  1  0  0  0  0
 20 50  1  0  0  0  0
 21 22  2  0  0  0  0
 21 51  1  0  0  0  0
 22 27  1  0  0  0  0
 22 23  1  0  0  0  0
 23 24  1  0  0  0  0
 23 30  1  0  0  0  0
 24 25  1  0  0  0  0
 24 52  1  0  0  0  0
 24 53  1  0  0  0  0
 25 26  1  0  0  0  0
 25 54  1  0  0  0  0
 25 55  1  0  0  0  0
 26 27  2  0  0  0  0
 26 28  1  0  0  0  0
 27 56  1  0  0  0  0
 28 29  2  0  0  0  0
 28 63  1  0  0  0  0
 30 57  1  0  0  0  0
 30 58  1  0  0  0  0
 30 59  1  0  0  0  0
 31 60  1  0  0  0  0
 31 61  1  0  0  0  0
 31 62  1  0  0  0  0
M  CHG  1  63  -1
M  END
$$$$
ZINC03803461
  -OEChem-08230709463D

 65 69  0     1  0  0  0  0  0999 V2000
   -3.6263    3.0311    0.1793 C   0  0  0  0  0  0  0  0  0  0  0  0
   -2.4751    4.0011    0.4526 C   0  0  2  0  0  0  0  0  0  0  0  0
   -2.4037    4.3133    1.9363 C   0  0  0  0  0  0  0  0  0  0  0  0
   -3.7871    4.8329    2.3526 C   0  0  0  0  0  0  0  0  0  0  0  0
   -4.2275    6.0467    1.5379 C   0  0  1  0  0  0  0  0  0  0  0  0
   -3.5995    6.9010    1.7906 H   0  0  0  0  0  0  0  0  0  0  0  0
   -4.1452    5.7795    0.0233 C   0  0  2  0  0  0  0  0  0  0  0  0
   -4.8562    5.0062   -0.2674 H   0  0  0  0  0  0  0  0  0  0  0  0
   -2.7251    5.3409   -0.2883 C   0  0  2  0  0  0  0  0  0  0  0  0
   -2.0085    6.0941    0.0392 H   0  0  0  0  0  0  0  0  0  0  0  0
   -2.4545    4.9487   -1.7449 C   0  0  0  0  0  0  0  0  0  0  0  0
   -1.1984    4.0423   -1.6327 C   0  0  0  0  0  0  0  0  0  0  0  0
   -1.1928    3.4800   -0.1895 C   0  0  2  0  0  0  0  0  0  0  0  0
   -0.4035    3.8019    0.3334 H   0  0  0  0  0  0  0  0  0  0  0  0
   -1.1976    1.9732   -0.2164 C   0  0  0  0  0  0  0  0  0  0  0  0
   -1.6550    1.3852   -1.1736 O   0  0  0  0  0  0  0  0  0  0  0  0
   -0.6484    1.2168    0.9163 C   0  0  0  0  0  0  0  0  0  0  0  0
   -0.1145    1.8933    2.0201 C   0  0  0  0  0  0  0  0  0  0  0  0
    0.4014    1.1824    3.0730 C   0  0  0  0  0  0  0  0  0  0  0  0
    0.3962   -0.2081    3.0454 C   0  0  0  0  0  0  0  0  0  0  0  0
   -0.1325   -0.8848    1.9514 C   0  0  0  0  0  0  0  0  0  0  0  0
   -0.6516   -0.1834    0.8938 C   0  0  0  0  0  0  0  0  0  0  0  0
    0.9082   -0.9068    4.0895 O   0  0  0  0  0  0  0  0  0  0  0  0
    1.4351   -0.1495    5.1808 C   0  0  0  0  0  0  0  0  0  0  0  0
   -4.4328    7.0930   -0.7127 C   0  0  0  0  0  0  0  0  0  0  0  0
   -5.6706    7.7539   -0.1691 C   0  0  0  0  0  0  0  0  0  0  0  0
   -6.2298    7.4293    0.9836 C   0  0  0  0  0  0  0  0  0  0  0  0
   -5.6854    6.3636    1.8891 C   0  0  2  0  0  0  0  0  0  0  0  0
   -5.7850    6.7820    3.3486 C   0  0  0  0  0  0  0  0  0  0  0  0
   -6.2022    8.2212    3.5313 C   0  0  0  0  0  0  0  0  0  0  0  0
   -7.4433    8.5321    2.7311 C   0  0  0  0  0  0  0  0  0  0  0  0
   -7.4493    8.1402    1.4219 C   0  0  0  0  0  0  0  0  0  0  0  0
   -8.5518    9.1996    3.3107 C   0  0  0  0  0  0  0  0  0  0  0  0
   -9.5385    9.4359    2.6395 O   0  0  0  0  0  0  0  0  0  0  0  0
   -6.5156    5.0934    1.6935 C   0  0  0  0  0  0  0  0  0  0  0  0
   -3.4340    2.0865    0.6880 H   0  0  0  0  0  0  0  0  0  0  0  0
   -4.5579    3.4596    0.5486 H   0  0  0  0  0  0  0  0  0  0  0  0
   -3.7070    2.8561   -0.8935 H   0  0  0  0  0  0  0  0  0  0  0  0
   -2.1543    3.4109    2.4946 H   0  0  0  0  0  0  0  0  0  0  0  0
   -1.6543    5.0835    2.1186 H   0  0  0  0  0  0  0  0  0  0  0  0
   -3.7603    5.1056    3.4076 H   0  0  0  0  0  0  0  0  0  0  0  0
   -4.5130    4.0316    2.2143 H   0  0  0  0  0  0  0  0  0  0  0  0
   -3.2962    4.3922   -2.1573 H   0  0  0  0  0  0  0  0  0  0  0  0
   -2.2411    5.8308   -2.3486 H   0  0  0  0  0  0  0  0  0  0  0  0
   -0.2968    4.6290   -1.8090 H   0  0  0  0  0  0  0  0  0  0  0  0
   -1.2607    3.2258   -2.3521 H   0  0  0  0  0  0  0  0  0  0  0  0
   -0.1096    2.9731    2.0423 H   0  0  0  0  0  0  0  0  0  0  0  0
    0.8124    1.7031    3.9252 H   0  0  0  0  0  0  0  0  0  0  0  0
   -0.1345   -1.9647    1.9351 H   0  0  0  0  0  0  0  0  0  0  0  0
   -1.0619   -0.7098    0.0447 H   0  0  0  0  0  0  0  0  0  0  0  0
    2.2482    0.4832    4.8250 H   0  0  0  0  0  0  0  0  0  0  0  0
    0.6477    0.4743    5.6039 H   0  0  0  0  0  0  0  0  0  0  0  0
    1.8113   -0.8285    5.9461 H   0  0  0  0  0  0  0  0  0  0  0  0
   -3.5919    7.7729   -0.5760 H   0  0  0  0  0  0  0  0  0  0  0  0
   -4.5593    6.8887   -1.7759 H   0  0  0  0  0  0  0  0  0  0  0  0
   -6.1391    8.5261   -0.7613 H   0  0  0  0  0  0  0  0  0  0  0  0
   -6.5158    6.1460    3.8480 H   0  0  0  0  0  0  0  0  0  0  0  0
   -4.8141    6.6386    3.8230 H   0  0  0  0  0  0  0  0  0  0  0  0
   -5.3908    8.8689    3.1994 H   0  0  0  0  0  0  0  0  0  0  0  0
   -6.4003    8.4092    4.5865 H   0  0  0  0  0  0  0  0  0  0  0  0
   -8.2798    8.3349    0.7595 H   0  0  0  0  0  0  0  0  0  0  0  0
   -6.2140    4.3457    2.4271 H   0  0  0  0  0  0  0  0  0  0  0  0
   -7.5723    5.3262    1.8254 H   0  0  0  0  0  0  0  0  0  0  0  0
   -6.3520    4.7035    0.6889 H   0  0  0  0  0  0  0  0  0  0  0  0
   -8.5123    9.5728    4.6068 O   0  5  0  0  0  0  0  0  0  0  0  0
  1  2  1  0  0  0  0
  1 36  1  0  0  0  0
  1 37  1  0  0  0  0
  1 38  1  0  0  0  0
  2  9  1  0  0  0  0
  2 13  1  0  0  0  0
  2  3  1  0  0  0  0
  3  4  1  0  0  0  0
  3 39  1  0  0  0  0
  3 40  1  0  0  0  0
  4  5  1  0  0  0  0
  4 41  1  0  0  0  0
  4 42  1  0  0  0  0
  5  6  1  0  0  0  0
  5 28  1  0  0  0  0
  5  7  1  0  0  0  0
  7  8  1  0  0  0  0
  7  9  1  0  0  0  0
  7 25  1  0  0  0  0
  9 10  1  0  0  0  0
  9 11  1  0  0  0  0
 11 12  1  0  0  0  0
 11 43  1  0  0  0  0
 11 44  1  0  0  0  0
 12 13  1  0  0  0  0
 12 45  1  0  0  0  0
 12 46  1  0  0  0  0
 13 14  1  0  0  0  0
 13 15  1  0  0  0  0
 15 16  2  0  0  0  0
 15 17  1  0  0  0  0
 17 22  2  0  0  0  0
 17 18  1  0  0  0  0
 18 19  2  0  0  0  0
 18 47  1  0  0  0  0
 19 20  1  0  0  0  0
 19 48  1  0  0  0  0
 20 21  2  0  0  0  0
 20 23  1  0  0  0  0
 21 22  1  0  0  0  0
 21 49  1  0  0  0  0
 22 50  1  0  0  0  0
 23 24  1  0  0  0  0
 24 51  1  0  0  0  0
 24 52  1  0  0  0  0
 24 53  1  0  0  0  0
 25 26  1  0  0  0  0
 25 54  1  0  0  0  0
 25 55  1  0  0  0  0
 26 27  2  0  0  0  0
 26 56  1  0  0  0  0
 27 32  1  0  0  0  0
 27 28  1  0  0  0  0
 28 29  1  0  0  0  0
 28 35  1  0  0  0  0
 29 30  1  0  0  0  0
 29 57  1  0  0  0  0
 29 58  1  0  0  0  0
 30 31  1  0  0  0  0
 30 59  1  0  0  0  0
 30 60  1  0  0  0  0
 31 32  2  0  0  0  0
 31 33  1  0  0  0  0
 32 61  1  0  0  0  0
 33 34  2  0  0  0  0
 33 65  1  0  0  0  0
 35 62  1  0  0  0  0
 35 63  1  0  0  0  0
 35 64  1  0  0  0  0
M  CHG  1  65  -1
M  END
$$$$
ZINC03803823
  -OEChem-08230709463D

 58 60  0     0  0  0  0  0  0999 V2000
   -0.8692    7.3717    0.3650 C   0  0  0  0  0  0  0  0  0  0  0  0
    0.6567    7.2690    0.3203 C   0  0  0  0  0  0  0  0  0  0  0  0
    1.2659    8.3130    1.2583 C   0  0  0  0  0  0  0  0  0  0  0  0
    1.1432    7.5213   -1.1082 C   0  0  0  0  0  0  0  0  0  0  0  0
    1.0805    5.8911    0.7593 C   0  0  0  0  0  0  0  0  0  0  0  0
    0.1285    4.9585    1.1206 C   0  0  0  0  0  0  0  0  0  0  0  0
    0.5191    3.6891    1.5250 C   0  0  0  0  0  0  0  0  0  0  0  0
    1.8670    3.3600    1.5714 C   0  0  0  0  0  0  0  0  0  0  0  0
    2.8179    4.2915    1.2044 C   0  0  0  0  0  0  0  0  0  0  0  0
    2.4271    5.5600    0.8008 C   0  0  0  0  0  0  0  0  0  0  0  0
    3.3641    6.4788    0.4454 O   0  0  0  0  0  0  0  0  0  0  0  0
    4.2808    3.9325    1.2492 C   0  0  0  0  0  0  0  0  0  0  0  0
    4.4368    2.4865    1.7242 C   0  0  0  0  0  0  0  0  0  0  0  0
    4.8847    4.0780   -0.1490 C   0  0  0  0  0  0  0  0  0  0  0  0
    5.0062    4.8686    2.2180 C   0  0  0  0  0  0  0  0  0  0  0  0
   -0.4477    2.7413    1.8922 N   0  0  0  0  0  0  0  0  0  0  0  0
   -1.3050    2.8213    2.9733 C   0  0  0  0  0  0  0  0  0  0  0  0
   -1.5063    3.7553    3.9801 C   0  0  0  0  0  0  0  0  0  0  0  0
   -2.4674    3.5264    4.9418 C   0  0  0  0  0  0  0  0  0  0  0  0
   -3.2337    2.3699    4.9088 C   0  0  0  0  0  0  0  0  0  0  0  0
   -3.0494    1.4396    3.9256 C   0  0  0  0  0  0  0  0  0  0  0  0
   -2.0808    1.6501    2.9406 C   0  0  0  0  0  0  0  0  0  0  0  0
   -1.6707    0.9330    1.8628 N   0  0  0  0  0  0  0  0  0  0  0  0
   -0.7181    1.5718    1.2479 C   0  0  0  0  0  0  0  0  0  0  0  0
   -0.0127    1.0858    0.0080 C   0  0  0  0  0  0  0  0  0  0  0  0
   -0.7527    1.5927   -1.2315 C   0  0  0  0  0  0  0  0  0  0  0  0
   -0.0473    1.1067   -2.4714 C   0  0  0  0  0  0  0  0  0  0  0  0
    0.9454    0.4249   -2.3737 O   0  0  0  0  0  0  0  0  0  0  0  0
   -1.2158    7.1920    1.3827 H   0  0  0  0  0  0  0  0  0  0  0  0
   -1.1757    8.3684    0.0474 H   0  0  0  0  0  0  0  0  0  0  0  0
   -1.3031    6.6280   -0.3033 H   0  0  0  0  0  0  0  0  0  0  0  0
    2.3529    8.2398    1.2265 H   0  0  0  0  0  0  0  0  0  0  0  0
    0.9593    9.3097    0.9408 H   0  0  0  0  0  0  0  0  0  0  0  0
    0.9193    8.1333    2.2760 H   0  0  0  0  0  0  0  0  0  0  0  0
    0.7093    6.7775   -1.7765 H   0  0  0  0  0  0  0  0  0  0  0  0
    0.8367    8.5179   -1.4257 H   0  0  0  0  0  0  0  0  0  0  0  0
    2.2303    7.4481   -1.1400 H   0  0  0  0  0  0  0  0  0  0  0  0
   -0.9197    5.2166    1.0890 H   0  0  0  0  0  0  0  0  0  0  0  0
    2.1716    2.3742    1.8905 H   0  0  0  0  0  0  0  0  0  0  0  0
    3.6782    7.0244    1.1793 H   0  0  0  0  0  0  0  0  0  0  0  0
    3.9200    1.8196    1.0341 H   0  0  0  0  0  0  0  0  0  0  0  0
    5.4949    2.2269    1.7566 H   0  0  0  0  0  0  0  0  0  0  0  0
    4.0066    2.3829    2.7203 H   0  0  0  0  0  0  0  0  0  0  0  0
    4.7736    5.1082   -0.4874 H   0  0  0  0  0  0  0  0  0  0  0  0
    5.9429    3.8184   -0.1166 H   0  0  0  0  0  0  0  0  0  0  0  0
    4.3680    3.4112   -0.8391 H   0  0  0  0  0  0  0  0  0  0  0  0
    4.5760    4.7650    3.2141 H   0  0  0  0  0  0  0  0  0  0  0  0
    6.0643    4.6090    2.2504 H   0  0  0  0  0  0  0  0  0  0  0  0
    4.8951    5.8988    1.8796 H   0  0  0  0  0  0  0  0  0  0  0  0
   -0.9131    4.6574    4.0099 H   0  0  0  0  0  0  0  0  0  0  0  0
   -2.6252    4.2523    5.7258 H   0  0  0  0  0  0  0  0  0  0  0  0
   -3.9836    2.2038    5.6681 H   0  0  0  0  0  0  0  0  0  0  0  0
   -3.6510    0.5428    3.9098 H   0  0  0  0  0  0  0  0  0  0  0  0
    0.0021   -0.0041    0.0020 H   0  0  0  0  0  0  0  0  0  0  0  0
    1.0099    1.4631    0.0003 H   0  0  0  0  0  0  0  0  0  0  0  0
   -1.7753    1.2154   -1.2238 H   0  0  0  0  0  0  0  0  0  0  0  0
   -0.7675    2.6825   -1.2255 H   0  0  0  0  0  0  0  0  0  0  0  0
   -0.5219    1.4312   -3.6843 O   0  5  0  0  0  0  0  0  0  0  0  0
  1  2  1  0  0  0  0
  1 29  1  0  0  0  0
  1 30  1  0  0  0  0
  1 31  1  0  0  0  0
  2  3  1  0  0  0  0
  2  4  1  0  0  0  0
  2  5  1  0  0  0  0
  3 32  1  0  0  0  0
  3 33  1  0  0  0  0
  3 34  1  0  0  0  0
  4 35  1  0  0  0  0
  4 36  1  0  0  0  0
  4 37  1  0  0  0  0
  5 10  2  0  0  0  0
  5  6  1  0  0  0  0
  6  7  2  0  0  0  0
  6 38  1  0  0  0  0
  7  8  1  0  0  0  0
  7 16  1  0  0  0  0
  8  9  2  0  0  0  0
  8 39  1  0  0  0  0
  9 10  1  0  0  0  0
  9 12  1  0  0  0  0
 10 11  1  0  0  0  0
 11 40  1  0  0  0  0
 12 13  1  0  0  0  0
 12 14  1  0  0  0  0
 12 15  1  0  0  0  0
 13 41  1  0  0  0  0
 13 42  1  0  0  0  0
 13 43  1  0  0  0  0
 14 44  1  0  0  0  0
 14 45  1  0  0  0  0
 14 46  1  0  0  0  0
 15 47  1  0  0  0  0
 15 48  1  0  0  0  0
 15 49  1  0  0  0  0
 16 24  1  0  0  0  0
 16 17  1  0  0  0  0
 17 22  2  0  0  0  0
 17 18  1  0  0  0  0
 18 19  2  0  0  0  0
 18 50  1  0  0  0  0
 19 20  1  0  0  0  0
 19 51  1  0  0  0  0
 20 21  2  0  0  0  0
 20 52  1  0  0  0  0
 21 22  1  0  0  0  0
 21 53  1  0  0  0  0
 22 23  1  0  0  0  0
 23 24  2  0  0  0  0
 24 25  1  0  0  0  0
 25 26  1  0  0  0  0
 25 54  1  0  0  0  0
 25 55  1  0  0  0  0
 26 27  1  0  0  0  0
 26 56  1  0  0  0  0
 26 57  1  0  0  0  0
 27 28  2  0  0  0  0
 27 58  1  0  0  0  0
M  CHG  1  58  -1
M  END
$$$$
ZINC03803823
  -OEChem-08230709463D

 59 61  0     0  0  0  0  0  0999 V2000
   -0.8692    7.3717    0.3650 C   0  0  0  0  0  0  0  0  0  0  0  0
    0.6567    7.2690    0.3203 C   0  0  0  0  0  0  0  0  0  0  0  0
    1.2659    8.3130    1.2583 C   0  0  0  0  0  0  0  0  0  0  0  0
    1.1432    7.5213   -1.1082 C   0  0  0  0  0  0  0  0  0  0  0  0
    1.0805    5.8911    0.7593 C   0  0  0  0  0  0  0  0  0  0  0  0
    0.1285    4.9585    1.1206 C   0  0  0  0  0  0  0  0  0  0  0  0
    0.5191    3.6891    1.5250 C   0  0  0  0  0  0  0  0  0  0  0  0
    1.8670    3.3600    1.5714 C   0  0  0  0  0  0  0  0  0  0  0  0
    2.8179    4.2915    1.2044 C   0  0  0  0  0  0  0  0  0  0  0  0
    2.4271    5.5600    0.8008 C   0  0  0  0  0  0  0  0  0  0  0  0
    3.3641    6.4788    0.4454 O   0  0  0  0  0  0  0  0  0  0  0  0
    4.2808    3.9325    1.2492 C   0  0  0  0  0  0  0  0  0  0  0  0
    4.4368    2.4865    1.7242 C   0  0  0  0  0  0  0  0  0  0  0  0
    4.8847    4.0780   -0.1490 C   0  0  0  0  0  0  0  0  0  0  0  0
    5.0062    4.8686    2.2180 C   0  0  0  0  0  0  0  0  0  0  0  0
   -0.4477    2.7413    1.8922 N   0  0  0  0  0  0  0  0  0  0  0  0
   -1.3050    2.8213    2.9733 C   0  0  0  0  0  0  0  0  0  0  0  0
   -1.5063    3.7553    3.9801 C   0  0  0  0  0  0  0  0  0  0  0  0
   -2.4674    3.5264    4.9418 C   0  0  0  0  0  0  0  0  0  0  0  0
   -3.2337    2.3699    4.9088 C   0  0  0  0  0  0  0  0  0  0  0  0
   -3.0494    1.4396    3.9256 C   0  0  0  0  0  0  0  0  0  0  0  0
   -2.0808    1.6501    2.9406 C   0  0  0  0  0  0  0  0  0  0  0  0
   -0.7181    1.5718    1.2479 C   0  0  0  0  0  0  0  0  0  0  0  0
   -0.0127    1.0858    0.0080 C   0  0  0  0  0  0  0  0  0  0  0  0
   -0.7527    1.5927   -1.2315 C   0  0  0  0  0  0  0  0  0  0  0  0
   -0.0473    1.1067   -2.4714 C   0  0  0  0  0  0  0  0  0  0  0  0
    0.9454    0.4249   -2.3737 O   0  0  0  0  0  0  0  0  0  0  0  0
   -1.2158    7.1920    1.3827 H   0  0  0  0  0  0  0  0  0  0  0  0
   -1.1757    8.3684    0.0474 H   0  0  0  0  0  0  0  0  0  0  0  0
   -1.3031    6.6280   -0.3033 H   0  0  0  0  0  0  0  0  0  0  0  0
    2.3529    8.2398    1.2265 H   0  0  0  0  0  0  0  0  0  0  0  0
    0.9593    9.3097    0.9408 H   0  0  0  0  0  0  0  0  0  0  0  0
    0.9193    8.1333    2.2760 H   0  0  0  0  0  0  0  0  0  0  0  0
    0.7093    6.7775   -1.7765 H   0  0  0  0  0  0  0  0  0  0  0  0
    0.8367    8.5179   -1.4257 H   0  0  0  0  0  0  0  0  0  0  0  0
    2.2303    7.4481   -1.1400 H   0  0  0  0  0  0  0  0  0  0  0  0
   -0.9197    5.2166    1.0890 H   0  0  0  0  0  0  0  0  0  0  0  0
    2.1716    2.3742    1.8905 H   0  0  0  0  0  0  0  0  0  0  0  0
    3.6782    7.0244    1.1793 H   0  0  0  0  0  0  0  0  0  0  0  0
    3.9200    1.8196    1.0341 H   0  0  0  0  0  0  0  0  0  0  0  0
    5.4949    2.2269    1.7566 H   0  0  0  0  0  0  0  0  0  0  0  0
    4.0066    2.3829    2.7203 H   0  0  0  0  0  0  0  0  0  0  0  0
    4.7736    5.1082   -0.4874 H   0  0  0  0  0  0  0  0  0  0  0  0
    5.9429    3.8184   -0.1166 H   0  0  0  0  0  0  0  0  0  0  0  0
    4.3680    3.4112   -0.8391 H   0  0  0  0  0  0  0  0  0  0  0  0
    4.5760    4.7650    3.2141 H   0  0  0  0  0  0  0  0  0  0  0  0
    6.0643    4.6090    2.2504 H   0  0  0  0  0  0  0  0  0  0  0  0
    4.8951    5.8988    1.8796 H   0  0  0  0  0  0  0  0  0  0  0  0
   -0.9131    4.6574    4.0099 H   0  0  0  0  0  0  0  0  0  0  0  0
   -2.6252    4.2523    5.7258 H   0  0  0  0  0  0  0  0  0  0  0  0
   -3.9836    2.2038    5.6681 H   0  0  0  0  0  0  0  0  0  0  0  0
   -3.6510    0.5428    3.9098 H   0  0  0  0  0  0  0  0  0  0  0  0
    0.0021   -0.0041    0.0020 H   0  0  0  0  0  0  0  0  0  0  0  0
    1.0099    1.4631    0.0003 H   0  0  0  0  0  0  0  0  0  0  0  0
   -1.7753    1.2154   -1.2238 H   0  0  0  0  0  0  0  0  0  0  0  0
   -0.7675    2.6825   -1.2255 H   0  0  0  0  0  0  0  0  0  0  0  0
   -0.5219    1.4312   -3.6843 O   0  5  0  0  0  0  0  0  0  0  0  0
   -1.6712    0.9318    1.8624 N   0  3  0  0  0  0  0  0  0  0  0  0
   -2.0545    0.0234    1.5760 H   0  0  0  0  0  0  0  0  0  0  0  0
  1  2  1  0  0  0  0
  1 28  1  0  0  0  0
  1 29  1  0  0  0  0
  1 30  1  0  0  0  0
  2  3  1  0  0  0  0
  2  4  1  0  0  0  0
  2  5  1  0  0  0  0
  3 31  1  0  0  0  0
  3 32  1  0  0  0  0
  3 33  1  0  0  0  0
  4 34  1  0  0  0  0
  4 35  1  0  0  0  0
  4 36  1  0  0  0  0
  5 10  2  0  0  0  0
  5  6  1  0  0  0  0
  6  7  2  0  0  0  0
  6 37  1  0  0  0  0
  7  8  1  0  0  0  0
  7 16  1  0  0  0  0
  8  9  2  0  0  0  0
  8 38  1  0  0  0  0
  9 10  1  0  0  0  0
  9 12  1  0  0  0  0
 10 11  1  0  0  0  0
 11 39  1  0  0  0  0
 12 13  1  0  0  0  0
 12 14  1  0  0  0  0
 12 15  1  0  0  0  0
 13 40  1  0  0  0  0
 13 41  1  0  0  0  0
 13 42  1  0  0  0  0
 14 43  1  0  0  0  0
 14 44  1  0  0  0  0
 14 45  1  0  0  0  0
 15 46  1  0  0  0  0
 15 47  1  0  0  0  0
 15 48  1  0  0  0  0
 16 23  1  0  0  0  0
 16 17  1  0  0  0  0
 17 22  2  0  0  0  0
 17 18  1  0  0  0  0
 18 19  2  0  0  0  0
 18 49  1  0  0  0  0
 19 20  1  0  0  0  0
 19 50  1  0  0  0  0
 20 21  2  0  0  0  0
 20 51  1  0  0  0  0
 21 22  1  0  0  0  0
 21 52  1  0  0  0  0
 22 58  1  0  0  0  0
 23 24  1  0  0  0  0
 23 58  2  0  0  0  0
 24 25  1  0  0  0  0
 24 53  1  0  0  0  0
 24 54  1  0  0  0  0
 25 26  1  0  0  0  0
 25 55  1  0  0  0  0
 25 56  1  0  0  0  0
 26 27  2  0  0  0  0
 26 57  1  0  0  0  0
 58 59  1  0  0  0  0
M  CHG  2  57  -1  58   1
M  END
$$$$
ZINC03806697
  -OEChem-08230709463D

 64 66  0     0  0  0  0  0  0999 V2000
    1.4910    4.1213   -0.5271 C   0  0  0  0  0  0  0  0  0  0  0  0
    0.1164    3.4712   -0.6972 C   0  0  0  0  0  0  0  0  0  0  0  0
   -0.7581    4.3537   -1.5900 C   0  0  0  0  0  0  0  0  0  0  0  0
   -0.5371    3.3177    0.6520 C   0  0  0  0  0  0  0  0  0  0  0  0
   -0.7824    4.4411    1.4303 C   0  0  0  0  0  0  0  0  0  0  0  0
   -1.3830    4.3231    2.6641 C   0  0  0  0  0  0  0  0  0  0  0  0
   -1.7390    3.0654    3.1423 C   0  0  0  0  0  0  0  0  0  0  0  0
   -1.4833    1.9303    2.3519 C   0  0  0  0  0  0  0  0  0  0  0  0
   -0.8784    2.0737    1.1021 C   0  0  0  0  0  0  0  0  0  0  0  0
   -1.9665    0.7785    3.1227 C   0  0  0  0  0  0  0  0  0  0  0  0
   -2.4625    1.2597    4.2785 C   0  0  0  0  0  0  0  0  0  0  0  0
   -2.3332    2.6295    4.3050 N   0  0  0  0  0  0  0  0  0  0  0  0
   -2.7631    3.4946    5.4063 C   0  0  0  0  0  0  0  0  0  0  0  0
   -4.1321    4.0481    5.1053 C   0  0  0  0  0  0  0  0  0  0  0  0
   -4.3479    4.8380    3.9864 C   0  0  0  0  0  0  0  0  0  0  0  0
   -5.6179    5.3245    3.7403 C   0  0  0  0  0  0  0  0  0  0  0  0
   -6.6147    5.0532    4.5600 N   0  0  0  0  0  0  0  0  0  0  0  0
   -6.4451    4.3096    5.6357 C   0  0  0  0  0  0  0  0  0  0  0  0
   -5.2044    3.7844    5.9437 C   0  0  0  0  0  0  0  0  0  0  0  0
   -3.0684    0.4244    5.3768 C   0  0  0  0  0  0  0  0  0  0  0  0
   -4.5222    0.0998    5.0277 C   0  0  0  0  0  0  0  0  0  0  0  0
   -5.3135    1.4007    4.8785 C   0  0  0  0  0  0  0  0  0  0  0  0
   -4.5690   -0.6793    3.7117 C   0  0  0  0  0  0  0  0  0  0  0  0
   -5.1287   -0.7339    6.1268 C   0  0  0  0  0  0  0  0  0  0  0  0
   -4.4661   -1.0373    7.0906 O   0  0  0  0  0  0  0  0  0  0  0  0
   -1.9087   -0.9121    2.6296 S   0  0  0  0  0  0  0  0  0  0  0  0
   -0.3100   -1.4974    3.2557 C   0  0  0  0  0  0  0  0  0  0  0  0
   -0.2690   -1.3389    4.7769 C   0  0  0  0  0  0  0  0  0  0  0  0
   -0.1287   -2.9723    2.8915 C   0  0  0  0  0  0  0  0  0  0  0  0
    0.8162   -0.6746    2.6267 C   0  0  0  0  0  0  0  0  0  0  0  0
    1.3745    5.1021   -0.0661 H   0  0  0  0  0  0  0  0  0  0  0  0
    2.1140    3.4925    0.1090 H   0  0  0  0  0  0  0  0  0  0  0  0
    1.9637    4.2323   -1.5030 H   0  0  0  0  0  0  0  0  0  0  0  0
    0.2329    2.4904   -1.1582 H   0  0  0  0  0  0  0  0  0  0  0  0
   -0.2854    4.4648   -2.5659 H   0  0  0  0  0  0  0  0  0  0  0  0
   -1.7374    3.8906   -1.7112 H   0  0  0  0  0  0  0  0  0  0  0  0
   -0.8746    5.3346   -1.1290 H   0  0  0  0  0  0  0  0  0  0  0  0
   -0.5029    5.4174    1.0629 H   0  0  0  0  0  0  0  0  0  0  0  0
   -1.5731    5.2032    3.2605 H   0  0  0  0  0  0  0  0  0  0  0  0
   -0.6811    1.2041    0.4928 H   0  0  0  0  0  0  0  0  0  0  0  0
   -2.8000    2.9162    6.3295 H   0  0  0  0  0  0  0  0  0  0  0  0
   -2.0560    4.3162    5.5203 H   0  0  0  0  0  0  0  0  0  0  0  0
   -3.5347    5.0674    3.3138 H   0  0  0  0  0  0  0  0  0  0  0  0
   -5.7951    5.9377    2.8691 H   0  0  0  0  0  0  0  0  0  0  0  0
   -7.2855    4.1088    6.2837 H   0  0  0  0  0  0  0  0  0  0  0  0
   -5.0717    3.1767    6.8266 H   0  0  0  0  0  0  0  0  0  0  0  0
   -2.5043   -0.5024    5.4817 H   0  0  0  0  0  0  0  0  0  0  0  0
   -3.0349    0.9782    6.3150 H   0  0  0  0  0  0  0  0  0  0  0  0
   -4.8008    2.0596    4.1778 H   0  0  0  0  0  0  0  0  0  0  0  0
   -6.3122    1.1775    4.5030 H   0  0  0  0  0  0  0  0  0  0  0  0
   -5.3914    1.8919    5.8485 H   0  0  0  0  0  0  0  0  0  0  0  0
   -4.0052   -1.6061    3.8179 H   0  0  0  0  0  0  0  0  0  0  0  0
   -5.6047   -0.9105    3.4630 H   0  0  0  0  0  0  0  0  0  0  0  0
   -4.1303   -0.0763    2.9167 H   0  0  0  0  0  0  0  0  0  0  0  0
   -1.0713   -1.9251    5.2250 H   0  0  0  0  0  0  0  0  0  0  0  0
    0.6917   -1.6906    5.1531 H   0  0  0  0  0  0  0  0  0  0  0  0
   -0.3981   -0.2882    5.0364 H   0  0  0  0  0  0  0  0  0  0  0  0
   -0.1578   -3.0853    1.8078 H   0  0  0  0  0  0  0  0  0  0  0  0
    0.8320   -3.3240    3.2677 H   0  0  0  0  0  0  0  0  0  0  0  0
   -0.9310   -3.5585    3.3396 H   0  0  0  0  0  0  0  0  0  0  0  0
    0.6871    0.3761    2.8862 H   0  0  0  0  0  0  0  0  0  0  0  0
    1.7769   -1.0263    3.0029 H   0  0  0  0  0  0  0  0  0  0  0  0
    0.7871   -0.7875    1.5430 H   0  0  0  0  0  0  0  0  0  0  0  0
   -6.4050   -1.1394    6.0352 O   0  5  0  0  0  0  0  0  0  0  0  0
  1  2  1  0  0  0  0
  1 31  1  0  0  0  0
  1 32  1  0  0  0  0
  1 33  1  0  0  0  0
  2  3  1  0  0  0  0
  2  4  1  0  0  0  0
  2 34  1  0  0  0  0
  3 35  1  0  0  0  0
  3 36  1  0  0  0  0
  3 37  1  0  0  0  0
  4  9  2  0  0  0  0
  4  5  1  0  0  0  0
  5  6  2  0  0  0  0
  5 38  1  0  0  0  0
  6  7  1  0  0  0  0
  6 39  1  0  0  0  0
  7 12  1  0  0  0  0
  7  8  2  0  0  0  0
  8  9  1  0  0  0  0
  8 10  1  0  0  0  0
  9 40  1  0  0  0  0
 10 11  2  0  0  0  0
 10 26  1  0  0  0  0
 11 12  1  0  0  0  0
 11 20  1  0  0  0  0
 12 13  1  0  0  0  0
 13 14  1  0  0  0  0
 13 41  1  0  0  0  0
 13 42  1  0  0  0  0
 14 19  2  0  0  0  0
 14 15  1  0  0  0  0
 15 16  2  0  0  0  0
 15 43  1  0  0  0  0
 16 17  1  0  0  0  0
 16 44  1  0  0  0  0
 17 18  2  0  0  0  0
 18 19  1  0  0  0  0
 18 45  1  0  0  0  0
 19 46  1  0  0  0  0
 20 21  1  0  0  0  0
 20 47  1  0  0  0  0
 20 48  1  0  0  0  0
 21 22  1  0  0  0  0
 21 23  1  0  0  0  0
 21 24  1  0  0  0  0
 22 49  1  0  0  0  0
 22 50  1  0  0  0  0
 22 51  1  0  0  0  0
 23 52  1  0  0  0  0
 23 53  1  0  0  0  0
 23 54  1  0  0  0  0
 24 25  2  0  0  0  0
 24 64  1  0  0  0  0
 26 27  1  0  0  0  0
 27 28  1  0  0  0  0
 27 29  1  0  0  0  0
 27 30  1  0  0  0  0
 28 55  1  0  0  0  0
 28 56  1  0  0  0  0
 28 57  1  0  0  0  0
 29 58  1  0  0  0  0
 29 59  1  0  0  0  0
 29 60  1  0  0  0  0
 30 61  1  0  0  0  0
 30 62  1  0  0  0  0
 30 63  1  0  0  0  0
M  CHG  1  64  -1
M  END
$$$$
ZINC03807844
  -OEChem-08230709463D

 55 58  0     0  0  0  0  0  0999 V2000
    1.4598   -5.5291   -2.5928 C   0  0  0  0  0  0  0  0  0  0  0  0
    0.0313   -5.1036   -2.2477 C   0  0  0  0  0  0  0  0  0  0  0  0
    0.0707   -3.9027   -1.3381 C   0  0  0  0  0  0  0  0  0  0  0  0
    0.1050   -3.9425    0.0486 C   0  0  0  0  0  0  0  0  0  0  0  0
    0.1340   -2.6323    0.5064 C   0  0  0  0  0  0  0  0  0  0  0  0
    0.1720   -2.1027    1.7373 N   0  0  0  0  0  0  0  0  0  0  0  0
    0.1939   -0.8002    1.9123 C   0  0  0  0  0  0  0  0  0  0  0  0
    0.1777    0.0602    0.8122 C   0  0  0  0  0  0  0  0  0  0  0  0
    0.1333   -0.4640   -0.4478 C   0  0  0  0  0  0  0  0  0  0  0  0
    0.1170   -1.8235   -0.6005 N   0  0  0  0  0  0  0  0  0  0  0  0
    0.0776   -2.6491   -1.7295 N   0  0  0  0  0  0  0  0  0  0  0  0
    0.1108    0.3487   -1.5291 O   0  0  0  0  0  0  0  0  0  0  0  0
   -1.1725    0.7542   -2.0093 C   0  0  0  0  0  0  0  0  0  0  0  0
    0.2028    1.5533    1.0142 C   0  0  0  0  0  0  0  0  0  0  0  0
    0.2370   -0.2322    3.3074 C   0  0  0  0  0  0  0  0  0  0  0  0
    0.1103   -5.1838    0.9031 C   0  0  0  0  0  0  0  0  0  0  0  0
   -1.3081   -5.5791    1.2237 C   0  0  0  0  0  0  0  0  0  0  0  0
   -1.9210   -5.0841    2.3609 C   0  0  0  0  0  0  0  0  0  0  0  0
   -3.2216   -5.4380    2.6566 C   0  0  0  0  0  0  0  0  0  0  0  0
   -3.9143   -6.3053    1.8126 C   0  0  0  0  0  0  0  0  0  0  0  0
   -3.2893   -6.8054    0.6708 C   0  0  0  0  0  0  0  0  0  0  0  0
   -1.9903   -6.4399    0.3825 C   0  0  0  0  0  0  0  0  0  0  0  0
   -5.3092   -6.6936    2.1275 C   0  0  0  0  0  0  0  0  0  0  0  0
   -5.6425   -8.0351    2.2920 C   0  0  0  0  0  0  0  0  0  0  0  0
   -6.9432   -8.3926    2.5848 C   0  0  0  0  0  0  0  0  0  0  0  0
   -7.9245   -7.4239    2.7180 C   0  0  0  0  0  0  0  0  0  0  0  0
   -7.6142   -6.0895    2.5593 C   0  0  0  0  0  0  0  0  0  0  0  0
   -6.3035   -5.7084    2.2678 C   0  0  0  0  0  0  0  0  0  0  0  0
   -5.9643   -4.2825    2.1030 C   0  0  0  0  0  0  0  0  0  0  0  0
   -4.8522   -3.9615    1.7337 O   0  0  0  0  0  0  0  0  0  0  0  0
    1.9942   -5.7839   -1.6775 H   0  0  0  0  0  0  0  0  0  0  0  0
    1.4314   -6.3977   -3.2506 H   0  0  0  0  0  0  0  0  0  0  0  0
    1.9717   -4.7088   -3.0960 H   0  0  0  0  0  0  0  0  0  0  0  0
   -0.4806   -5.9239   -1.7445 H   0  0  0  0  0  0  0  0  0  0  0  0
   -0.5031   -4.8488   -3.1629 H   0  0  0  0  0  0  0  0  0  0  0  0
   -1.0478    1.4016   -2.8773 H   0  0  0  0  0  0  0  0  0  0  0  0
   -1.7493   -0.1263   -2.2927 H   0  0  0  0  0  0  0  0  0  0  0  0
   -1.6995    1.2965   -1.2243 H   0  0  0  0  0  0  0  0  0  0  0  0
    1.2361    1.8996    1.0370 H   0  0  0  0  0  0  0  0  0  0  0  0
   -0.3254    2.0399    0.1941 H   0  0  0  0  0  0  0  0  0  0  0  0
   -0.2842    1.8006    1.9575 H   0  0  0  0  0  0  0  0  0  0  0  0
   -0.7798   -0.0812    3.6699 H   0  0  0  0  0  0  0  0  0  0  0  0
    0.7583   -0.9265    3.9665 H   0  0  0  0  0  0  0  0  0  0  0  0
    0.7638    0.7220    3.2951 H   0  0  0  0  0  0  0  0  0  0  0  0
    0.6003   -5.9943    0.3635 H   0  0  0  0  0  0  0  0  0  0  0  0
    0.6502   -4.9852    1.8290 H   0  0  0  0  0  0  0  0  0  0  0  0
   -1.3819   -4.4162    3.0163 H   0  0  0  0  0  0  0  0  0  0  0  0
   -3.7005   -5.0475    3.5424 H   0  0  0  0  0  0  0  0  0  0  0  0
   -3.8209   -7.4772    0.0132 H   0  0  0  0  0  0  0  0  0  0  0  0
   -1.5053   -6.8263   -0.5017 H   0  0  0  0  0  0  0  0  0  0  0  0
   -4.8833   -8.7964    2.1901 H   0  0  0  0  0  0  0  0  0  0  0  0
   -7.1975   -9.4346    2.7112 H   0  0  0  0  0  0  0  0  0  0  0  0
   -8.9386   -7.7153    2.9480 H   0  0  0  0  0  0  0  0  0  0  0  0
   -8.3843   -5.3396    2.6643 H   0  0  0  0  0  0  0  0  0  0  0  0
   -6.8876   -3.3360    2.3619 O   0  5  0  0  0  0  0  0  0  0  0  0
  1  2  1  0  0  0  0
  1 31  1  0  0  0  0
  1 32  1  0  0  0  0
  1 33  1  0  0  0  0
  2  3  1  0  0  0  0
  2 34  1  0  0  0  0
  2 35  1  0  0  0  0
  3 11  2  0  0  0  0
  3  4  1  0  0  0  0
  4  5  2  0  0  0  0
  4 16  1  0  0  0  0
  5 10  1  0  0  0  0
  5  6  1  0  0  0  0
  6  7  2  0  0  0  0
  7  8  1  0  0  0  0
  7 15  1  0  0  0  0
  8  9  2  0  0  0  0
  8 14  1  0  0  0  0
  9 10  1  0  0  0  0
  9 12  1  0  0  0  0
 10 11  1  0  0  0  0
 12 13  1  0  0  0  0
 13 36  1  0  0  0  0
 13 37  1  0  0  0  0
 13 38  1  0  0  0  0
 14 39  1  0  0  0  0
 14 40  1  0  0  0  0
 14 41  1  0  0  0  0
 15 42  1  0  0  0  0
 15 43  1  0  0  0  0
 15 44  1  0  0  0  0
 16 17  1  0  0  0  0
 16 45  1  0  0  0  0
 16 46  1  0  0  0  0
 17 22  2  0  0  0  0
 17 18  1  0  0  0  0
 18 19  2  0  0  0  0
 18 47  1  0  0  0  0
 19 20  1  0  0  0  0
 19 48  1  0  0  0  0
 20 21  2  0  0  0  0
 20 23  1  0  0  0  0
 21 22  1  0  0  0  0
 21 49  1  0  0  0  0
 22 50  1  0  0  0  0
 23 28  2  0  0  0  0
 23 24  1  0  0  0  0
 24 25  2  0  0  0  0
 24 51  1  0  0  0  0
 25 26  1  0  0  0  0
 25 52  1  0  0  0  0
 26 27  2  0  0  0  0
 26 53  1  0  0  0  0
 27 28  1  0  0  0  0
 27 54  1  0  0  0  0
 28 29  1  0  0  0  0
 29 30  2  0  0  0  0
 29 55  1  0  0  0  0
M  CHG  1  55  -1
M  END
$$$$
ZINC03808222
  -OEChem-08230709463D

 55 59  0     1  0  0  0  0  0999 V2000
   -5.9090    4.7851    1.2395 C   0  0  0  0  0  0  0  0  0  0  0  0
   -5.3202    3.3781    1.1194 C   0  0  0  0  0  0  0  0  0  0  0  0
   -4.8154    3.1630   -0.2841 C   0  0  0  0  0  0  0  0  0  0  0  0
   -5.5217    2.6813   -1.2649 N   0  0  0  0  0  0  0  0  0  0  0  0
   -4.7595    2.6224   -2.3856 C   0  0  0  0  0  0  0  0  0  0  0  0
   -4.9961    2.1999   -3.6975 C   0  0  0  0  0  0  0  0  0  0  0  0
   -3.9588    2.2833   -4.6064 C   0  0  0  0  0  0  0  0  0  0  0  0
   -2.7295    2.7767   -4.1977 C   0  0  0  0  0  0  0  0  0  0  0  0
   -2.5269    3.1696   -2.9573 N   0  0  0  0  0  0  0  0  0  0  0  0
   -3.4869    3.1162   -2.0478 C   0  0  0  0  0  0  0  0  0  0  0  0
   -3.5539    3.4446   -0.7109 N   0  0  0  0  0  0  0  0  0  0  0  0
   -2.4683    4.0008    0.1004 C   0  0  2  0  0  0  0  0  0  0  0  0
   -2.8110    4.1767    1.1201 H   0  0  0  0  0  0  0  0  0  0  0  0
   -1.9493    5.3122   -0.5261 C   0  0  0  0  0  0  0  0  0  0  0  0
   -0.4414    5.2612   -0.2012 C   0  0  0  0  0  0  0  0  0  0  0  0
   -0.1132    3.7888   -0.0731 C   0  0  0  0  0  0  0  0  0  0  0  0
   -1.2790    3.0635    0.1003 C   0  0  0  0  0  0  0  0  0  0  0  0
   -1.2255    1.6851    0.2353 C   0  0  0  0  0  0  0  0  0  0  0  0
   -0.0133    1.0284    0.2101 C   0  0  0  0  0  0  0  0  0  0  0  0
    1.1643    1.7540    0.0358 C   0  0  0  0  0  0  0  0  0  0  0  0
    1.1063    3.1389   -0.1059 C   0  0  0  0  0  0  0  0  0  0  0  0
    2.4710    1.0560    0.0019 C   0  0  0  0  0  0  0  0  0  0  0  0
    3.4669    1.3892    0.9156 C   0  0  0  0  0  0  0  0  0  0  0  0
    4.6826    0.7364    0.8809 C   0  0  0  0  0  0  0  0  0  0  0  0
    4.9219   -0.2520   -0.0599 C   0  0  0  0  0  0  0  0  0  0  0  0
    3.9483   -0.5962   -0.9739 C   0  0  0  0  0  0  0  0  0  0  0  0
    2.7107    0.0485   -0.9503 C   0  0  0  0  0  0  0  0  0  0  0  0
    1.6629   -0.3201   -1.9207 C   0  0  0  0  0  0  0  0  0  0  0  0
    0.6325    0.3214   -1.9752 O   0  0  0  0  0  0  0  0  0  0  0  0
   -1.6020    2.8658   -5.1936 C   0  0  0  0  0  0  0  0  0  0  0  0
   -6.3448    1.6680   -4.1084 C   0  0  0  0  0  0  0  0  0  0  0  0
   -5.1383    5.5220    1.0137 H   0  0  0  0  0  0  0  0  0  0  0  0
   -6.7341    4.8950    0.5357 H   0  0  0  0  0  0  0  0  0  0  0  0
   -6.2742    4.9407    2.2547 H   0  0  0  0  0  0  0  0  0  0  0  0
   -6.0910    2.6412    1.3452 H   0  0  0  0  0  0  0  0  0  0  0  0
   -4.4952    3.2682    1.8231 H   0  0  0  0  0  0  0  0  0  0  0  0
   -4.1046    1.9659   -5.6284 H   0  0  0  0  0  0  0  0  0  0  0  0
   -2.1135    5.3183   -1.6037 H   0  0  0  0  0  0  0  0  0  0  0  0
   -2.4202    6.1774   -0.0593 H   0  0  0  0  0  0  0  0  0  0  0  0
   -0.2391    5.7768    0.7375 H   0  0  0  0  0  0  0  0  0  0  0  0
    0.1352    5.7082   -1.0110 H   0  0  0  0  0  0  0  0  0  0  0  0
   -2.1382    1.1226    0.3655 H   0  0  0  0  0  0  0  0  0  0  0  0
    0.0233   -0.0453    0.3206 H   0  0  0  0  0  0  0  0  0  0  0  0
    2.0156    3.7056   -0.2412 H   0  0  0  0  0  0  0  0  0  0  0  0
    3.2881    2.1586    1.6522 H   0  0  0  0  0  0  0  0  0  0  0  0
    5.4522    0.9976    1.5922 H   0  0  0  0  0  0  0  0  0  0  0  0
    5.8768   -0.7563   -0.0773 H   0  0  0  0  0  0  0  0  0  0  0  0
    4.1417   -1.3679   -1.7044 H   0  0  0  0  0  0  0  0  0  0  0  0
   -1.6279    3.8380   -5.6858 H   0  0  0  0  0  0  0  0  0  0  0  0
   -0.6501    2.7457   -4.6764 H   0  0  0  0  0  0  0  0  0  0  0  0
   -1.7124    2.0782   -5.9390 H   0  0  0  0  0  0  0  0  0  0  0  0
   -6.9681    2.4903   -4.4599 H   0  0  0  0  0  0  0  0  0  0  0  0
   -6.2194    0.9392   -4.9092 H   0  0  0  0  0  0  0  0  0  0  0  0
   -6.8226    1.1897   -3.2534 H   0  0  0  0  0  0  0  0  0  0  0  0
    1.8485   -1.3683   -2.7469 O   0  5  0  0  0  0  0  0  0  0  0  0
  1  2  1  0  0  0  0
  1 32  1  0  0  0  0
  1 33  1  0  0  0  0
  1 34  1  0  0  0  0
  2  3  1  0  0  0  0
  2 35  1  0  0  0  0
  2 36  1  0  0  0  0
  3 11  1  0  0  0  0
  3  4  2  0  0  0  0
  4  5  1  0  0  0  0
  5 10  2  0  0  0  0
  5  6  1  0  0  0  0
  6  7  2  0  0  0  0
  6 31  1  0  0  0  0
  7  8  1  0  0  0  0
  7 37  1  0  0  0  0
  8  9  2  0  0  0  0
  8 30  1  0  0  0  0
  9 10  1  0  0  0  0
 10 11  1  0  0  0  0
 11 12  1  0  0  0  0
 12 13  1  0  0  0  0
 12 17  1  0  0  0  0
 12 14  1  0  0  0  0
 14 15  1  0  0  0  0
 14 38  1  0  0  0  0
 14 39  1  0  0  0  0
 15 16  1  0  0  0  0
 15 40  1  0  0  0  0
 15 41  1  0  0  0  0
 16 21  2  0  0  0  0
 16 17  1  0  0  0  0
 17 18  2  0  0  0  0
 18 19  1  0  0  0  0
 18 42  1  0  0  0  0
 19 20  2  0  0  0  0
 19 43  1  0  0  0  0
 20 21  1  0  0  0  0
 20 22  1  0  0  0  0
 21 44  1  0  0  0  0
 22 27  2  0  0  0  0
 22 23  1  0  0  0  0
 23 24  2  0  0  0  0
 23 45  1  0  0  0  0
 24 25  1  0  0  0  0
 24 46  1  0  0  0  0
 25 26  2  0  0  0  0
 25 47  1  0  0  0  0
 26 27  1  0  0  0  0
 26 48  1  0  0  0  0
 27 28  1  0  0  0  0
 28 29  2  0  0  0  0
 28 55  1  0  0  0  0
 30 49  1  0  0  0  0
 30 50  1  0  0  0  0
 30 51  1  0  0  0  0
 31 52  1  0  0  0  0
 31 53  1  0  0  0  0
 31 54  1  0  0  0  0
M  CHG  1  55  -1
M  END
$$$$
ZINC03808222
  -OEChem-08230709463D

 56 60  0     1  0  0  0  0  0999 V2000
   -5.9090    4.7851    1.2395 C   0  0  0  0  0  0  0  0  0  0  0  0
   -5.3202    3.3781    1.1194 C   0  0  0  0  0  0  0  0  0  0  0  0
   -4.8154    3.1630   -0.2841 C   0  0  0  0  0  0  0  0  0  0  0  0
   -4.7595    2.6224   -2.3856 C   0  0  0  0  0  0  0  0  0  0  0  0
   -4.9961    2.1999   -3.6975 C   0  0  0  0  0  0  0  0  0  0  0  0
   -3.9588    2.2833   -4.6064 C   0  0  0  0  0  0  0  0  0  0  0  0
   -2.7295    2.7767   -4.1977 C   0  0  0  0  0  0  0  0  0  0  0  0
   -2.5269    3.1696   -2.9573 N   0  0  0  0  0  0  0  0  0  0  0  0
   -3.4869    3.1162   -2.0478 C   0  0  0  0  0  0  0  0  0  0  0  0
   -3.5539    3.4446   -0.7109 N   0  0  0  0  0  0  0  0  0  0  0  0
   -2.4683    4.0008    0.1004 C   0  0  2  0  0  0  0  0  0  0  0  0
   -2.8110    4.1767    1.1201 H   0  0  0  0  0  0  0  0  0  0  0  0
   -1.9493    5.3122   -0.5261 C   0  0  0  0  0  0  0  0  0  0  0  0
   -0.4414    5.2612   -0.2012 C   0  0  0  0  0  0  0  0  0  0  0  0
   -0.1132    3.7888   -0.0731 C   0  0  0  0  0  0  0  0  0  0  0  0
   -1.2790    3.0635    0.1003 C   0  0  0  0  0  0  0  0  0  0  0  0
   -1.2255    1.6851    0.2353 C   0  0  0  0  0  0  0  0  0  0  0  0
   -0.0133    1.0284    0.2101 C   0  0  0  0  0  0  0  0  0  0  0  0
    1.1643    1.7540    0.0358 C   0  0  0  0  0  0  0  0  0  0  0  0
    1.1063    3.1389   -0.1059 C   0  0  0  0  0  0  0  0  0  0  0  0
    2.4710    1.0560    0.0019 C   0  0  0  0  0  0  0  0  0  0  0  0
    3.4669    1.3892    0.9156 C   0  0  0  0  0  0  0  0  0  0  0  0
    4.6826    0.7364    0.8809 C   0  0  0  0  0  0  0  0  0  0  0  0
    4.9219   -0.2520   -0.0599 C   0  0  0  0  0  0  0  0  0  0  0  0
    3.9483   -0.5962   -0.9739 C   0  0  0  0  0  0  0  0  0  0  0  0
    2.7107    0.0485   -0.9503 C   0  0  0  0  0  0  0  0  0  0  0  0
    1.6629   -0.3201   -1.9207 C   0  0  0  0  0  0  0  0  0  0  0  0
    0.6325    0.3214   -1.9752 O   0  0  0  0  0  0  0  0  0  0  0  0
   -1.6020    2.8658   -5.1936 C   0  0  0  0  0  0  0  0  0  0  0  0
   -6.3448    1.6680   -4.1084 C   0  0  0  0  0  0  0  0  0  0  0  0
   -5.1383    5.5220    1.0137 H   0  0  0  0  0  0  0  0  0  0  0  0
   -6.7341    4.8950    0.5357 H   0  0  0  0  0  0  0  0  0  0  0  0
   -6.2742    4.9407    2.2547 H   0  0  0  0  0  0  0  0  0  0  0  0
   -6.0910    2.6412    1.3452 H   0  0  0  0  0  0  0  0  0  0  0  0
   -4.4952    3.2682    1.8231 H   0  0  0  0  0  0  0  0  0  0  0  0
   -4.1046    1.9659   -5.6284 H   0  0  0  0  0  0  0  0  0  0  0  0
   -2.1135    5.3183   -1.6037 H   0  0  0  0  0  0  0  0  0  0  0  0
   -2.4202    6.1774   -0.0593 H   0  0  0  0  0  0  0  0  0  0  0  0
   -0.2391    5.7768    0.7375 H   0  0  0  0  0  0  0  0  0  0  0  0
    0.1352    5.7082   -1.0110 H   0  0  0  0  0  0  0  0  0  0  0  0
   -2.1382    1.1226    0.3655 H   0  0  0  0  0  0  0  0  0  0  0  0
    0.0233   -0.0453    0.3206 H   0  0  0  0  0  0  0  0  0  0  0  0
    2.0156    3.7056   -0.2412 H   0  0  0  0  0  0  0  0  0  0  0  0
    3.2881    2.1586    1.6522 H   0  0  0  0  0  0  0  0  0  0  0  0
    5.4522    0.9976    1.5922 H   0  0  0  0  0  0  0  0  0  0  0  0
    5.8768   -0.7563   -0.0773 H   0  0  0  0  0  0  0  0  0  0  0  0
    4.1417   -1.3679   -1.7044 H   0  0  0  0  0  0  0  0  0  0  0  0
   -1.6279    3.8380   -5.6858 H   0  0  0  0  0  0  0  0  0  0  0  0
   -0.6501    2.7457   -4.6764 H   0  0  0  0  0  0  0  0  0  0  0  0
   -1.7124    2.0782   -5.9390 H   0  0  0  0  0  0  0  0  0  0  0  0
   -6.9681    2.4903   -4.4599 H   0  0  0  0  0  0  0  0  0  0  0  0
   -6.2194    0.9392   -4.9092 H   0  0  0  0  0  0  0  0  0  0  0  0
   -6.8226    1.1897   -3.2534 H   0  0  0  0  0  0  0  0  0  0  0  0
    1.8485   -1.3683   -2.7469 O   0  5  0  0  0  0  0  0  0  0  0  0
   -5.5219    2.6812   -1.2649 N   0  3  0  0  0  0  0  0  0  0  0  0
   -6.5045    2.3905   -1.2006 H   0  0  0  0  0  0  0  0  0  0  0  0
  1  2  1  0  0  0  0
  1 31  1  0  0  0  0
  1 32  1  0  0  0  0
  1 33  1  0  0  0  0
  2  3  1  0  0  0  0
  2 34  1  0  0  0  0
  2 35  1  0  0  0  0
  3 10  1  0  0  0  0
  3 55  2  0  0  0  0
  4  9  2  0  0  0  0
  4  5  1  0  0  0  0
  4 55  1  0  0  0  0
  5  6  2  0  0  0  0
  5 30  1  0  0  0  0
  6  7  1  0  0  0  0
  6 36  1  0  0  0  0
  7  8  2  0  0  0  0
  7 29  1  0  0  0  0
  8  9  1  0  0  0  0
  9 10  1  0  0  0  0
 10 11  1  0  0  0  0
 11 12  1  0  0  0  0
 11 16  1  0  0  0  0
 11 13  1  0  0  0  0
 13 14  1  0  0  0  0
 13 37  1  0  0  0  0
 13 38  1  0  0  0  0
 14 15  1  0  0  0  0
 14 39  1  0  0  0  0
 14 40  1  0  0  0  0
 15 20  2  0  0  0  0
 15 16  1  0  0  0  0
 16 17  2  0  0  0  0
 17 18  1  0  0  0  0
 17 41  1  0  0  0  0
 18 19  2  0  0  0  0
 18 42  1  0  0  0  0
 19 20  1  0  0  0  0
 19 21  1  0  0  0  0
 20 43  1  0  0  0  0
 21 26  2  0  0  0  0
 21 22  1  0  0  0  0
 22 23  2  0  0  0  0
 22 44  1  0  0  0  0
 23 24  1  0  0  0  0
 23 45  1  0  0  0  0
 24 25  2  0  0  0  0
 24 46  1  0  0  0  0
 25 26  1  0  0  0  0
 25 47  1  0  0  0  0
 26 27  1  0  0  0  0
 27 28  2  0  0  0  0
 27 54  1  0  0  0  0
 29 48  1  0  0  0  0
 29 49  1  0  0  0  0
 29 50  1  0  0  0  0
 30 51  1  0  0  0  0
 30 52  1  0  0  0  0
 30 53  1  0  0  0  0
 55 56  1  0  0  0  0
M  CHG  2  54  -1  55   1
M  END
$$$$
ZINC03808388
  -OEChem-08230709463D

 52 55  0     0  0  0  0  0  0999 V2000
   -2.4003   -0.2533    1.2815 C   0  0  0  0  0  0  0  0  0  0  0  0
   -2.2955    1.2551    1.0476 C   0  0  0  0  0  0  0  0  0  0  0  0
   -2.7437    1.9878    2.2859 C   0  0  0  0  0  0  0  0  0  0  0  0
   -1.9864    2.2538    3.3098 N   0  0  0  0  0  0  0  0  0  0  0  0
   -2.7071    2.9230    4.2444 C   0  0  0  0  0  0  0  0  0  0  0  0
   -2.4099    3.4440    5.5076 C   0  0  0  0  0  0  0  0  0  0  0  0
   -3.4179    4.0845    6.2024 C   0  0  0  0  0  0  0  0  0  0  0  0
   -4.6783    4.1911    5.6353 C   0  0  0  0  0  0  0  0  0  0  0  0
   -4.9394    3.6892    4.4462 N   0  0  0  0  0  0  0  0  0  0  0  0
   -4.0098    3.0706    3.7357 C   0  0  0  0  0  0  0  0  0  0  0  0
   -3.9997    2.4685    2.4960 N   0  0  0  0  0  0  0  0  0  0  0  0
   -5.1328    2.3656    1.5731 C   0  0  0  0  0  0  0  0  0  0  0  0
   -5.2266    3.6248    0.7504 C   0  0  0  0  0  0  0  0  0  0  0  0
   -5.9177    4.7185    1.2371 C   0  0  0  0  0  0  0  0  0  0  0  0
   -6.0004    5.8749    0.4841 C   0  0  0  0  0  0  0  0  0  0  0  0
   -5.3989    5.9346   -0.7591 C   0  0  0  0  0  0  0  0  0  0  0  0
   -4.7122    4.8390   -1.2480 C   0  0  0  0  0  0  0  0  0  0  0  0
   -4.6262    3.6840   -0.4934 C   0  0  0  0  0  0  0  0  0  0  0  0
   -5.4921    7.1939   -1.5816 C   0  0  0  0  0  0  0  0  0  0  0  0
   -5.1902    8.4426   -0.7210 C   0  0  0  0  0  0  0  0  0  0  0  0
   -6.1397    9.5007   -1.2330 C   0  0  0  0  0  0  0  0  0  0  0  0
   -7.1000    8.9685   -1.9389 C   0  0  0  0  0  0  0  0  0  0  0  0
   -6.9511    7.4668   -2.0153 C   0  0  0  0  0  0  0  0  0  0  0  0
   -4.5764    7.1250   -2.7765 C   0  0  0  0  0  0  0  0  0  0  0  0
   -5.0310    7.2180   -3.8921 O   0  0  0  0  0  0  0  0  0  0  0  0
   -5.7740    4.8903    6.3980 C   0  0  0  0  0  0  0  0  0  0  0  0
   -1.0283    3.3111    6.0946 C   0  0  0  0  0  0  0  0  0  0  0  0
   -3.4460   -0.5277    1.4202 H   0  0  0  0  0  0  0  0  0  0  0  0
   -1.9967   -0.7836    0.4190 H   0  0  0  0  0  0  0  0  0  0  0  0
   -1.8327   -0.5231    2.1721 H   0  0  0  0  0  0  0  0  0  0  0  0
   -2.9310    1.5376    0.2083 H   0  0  0  0  0  0  0  0  0  0  0  0
   -1.2613    1.5172    0.8247 H   0  0  0  0  0  0  0  0  0  0  0  0
   -3.2252    4.4991    7.1808 H   0  0  0  0  0  0  0  0  0  0  0  0
   -4.9875    1.5104    0.9132 H   0  0  0  0  0  0  0  0  0  0  0  0
   -6.0535    2.2336    2.1415 H   0  0  0  0  0  0  0  0  0  0  0  0
   -6.3906    4.6707    2.2069 H   0  0  0  0  0  0  0  0  0  0  0  0
   -6.5372    6.7307    0.8659 H   0  0  0  0  0  0  0  0  0  0  0  0
   -4.2425    4.8855   -2.2194 H   0  0  0  0  0  0  0  0  0  0  0  0
   -4.0897    2.8281   -0.8753 H   0  0  0  0  0  0  0  0  0  0  0  0
   -5.3849    8.2348    0.3312 H   0  0  0  0  0  0  0  0  0  0  0  0
   -4.1568    8.7597   -0.8614 H   0  0  0  0  0  0  0  0  0  0  0  0
   -6.0370   10.5584   -1.0405 H   0  0  0  0  0  0  0  0  0  0  0  0
   -7.8966    9.5281   -2.4066 H   0  0  0  0  0  0  0  0  0  0  0  0
   -7.1150    7.1204   -3.0357 H   0  0  0  0  0  0  0  0  0  0  0  0
   -7.6476    6.9793   -1.3332 H   0  0  0  0  0  0  0  0  0  0  0  0
   -5.7686    5.9518    6.1506 H   0  0  0  0  0  0  0  0  0  0  0  0
   -5.6082    4.7659    7.4682 H   0  0  0  0  0  0  0  0  0  0  0  0
   -6.7376    4.4590    6.1271 H   0  0  0  0  0  0  0  0  0  0  0  0
   -0.9647    2.3864    6.6681 H   0  0  0  0  0  0  0  0  0  0  0  0
   -0.2924    3.2915    5.2908 H   0  0  0  0  0  0  0  0  0  0  0  0
   -0.8286    4.1593    6.7495 H   0  0  0  0  0  0  0  0  0  0  0  0
   -3.2558    6.9605   -2.6014 O   0  5  0  0  0  0  0  0  0  0  0  0
  1  2  1  0  0  0  0
  1 28  1  0  0  0  0
  1 29  1  0  0  0  0
  1 30  1  0  0  0  0
  2  3  1  0  0  0  0
  2 31  1  0  0  0  0
  2 32  1  0  0  0  0
  3 11  1  0  0  0  0
  3  4  2  0  0  0  0
  4  5  1  0  0  0  0
  5 10  2  0  0  0  0
  5  6  1  0  0  0  0
  6  7  2  0  0  0  0
  6 27  1  0  0  0  0
  7  8  1  0  0  0  0
  7 33  1  0  0  0  0
  8  9  2  0  0  0  0
  8 26  1  0  0  0  0
  9 10  1  0  0  0  0
 10 11  1  0  0  0  0
 11 12  1  0  0  0  0
 12 13  1  0  0  0  0
 12 34  1  0  0  0  0
 12 35  1  0  0  0  0
 13 18  2  0  0  0  0
 13 14  1  0  0  0  0
 14 15  2  0  0  0  0
 14 36  1  0  0  0  0
 15 16  1  0  0  0  0
 15 37  1  0  0  0  0
 16 17  2  0  0  0  0
 16 19  1  0  0  0  0
 17 18  1  0  0  0  0
 17 38  1  0  0  0  0
 18 39  1  0  0  0  0
 19 23  1  0  0  0  0
 19 20  1  0  0  0  0
 19 24  1  0  0  0  0
 20 21  1  0  0  0  0
 20 40  1  0  0  0  0
 20 41  1  0  0  0  0
 21 22  2  0  0  0  0
 21 42  1  0  0  0  0
 22 23  1  0  0  0  0
 22 43  1  0  0  0  0
 23 44  1  0  0  0  0
 23 45  1  0  0  0  0
 24 25  2  0  0  0  0
 24 52  1  0  0  0  0
 26 46  1  0  0  0  0
 26 47  1  0  0  0  0
 26 48  1  0  0  0  0
 27 49  1  0  0  0  0
 27 50  1  0  0  0  0
 27 51  1  0  0  0  0
M  CHG  1  52  -1
M  END
$$$$
ZINC03808388
  -OEChem-08230709463D

 53 56  0     0  0  0  0  0  0999 V2000
   -2.4003   -0.2533    1.2815 C   0  0  0  0  0  0  0  0  0  0  0  0
   -2.2955    1.2551    1.0476 C   0  0  0  0  0  0  0  0  0  0  0  0
   -2.7437    1.9878    2.2859 C   0  0  0  0  0  0  0  0  0  0  0  0
   -2.7071    2.9230    4.2444 C   0  0  0  0  0  0  0  0  0  0  0  0
   -2.4099    3.4440    5.5076 C   0  0  0  0  0  0  0  0  0  0  0  0
   -3.4179    4.0845    6.2024 C   0  0  0  0  0  0  0  0  0  0  0  0
   -4.6783    4.1911    5.6353 C   0  0  0  0  0  0  0  0  0  0  0  0
   -4.9394    3.6892    4.4462 N   0  0  0  0  0  0  0  0  0  0  0  0
   -4.0098    3.0706    3.7357 C   0  0  0  0  0  0  0  0  0  0  0  0
   -3.9997    2.4685    2.4960 N   0  0  0  0  0  0  0  0  0  0  0  0
   -5.1328    2.3656    1.5731 C   0  0  0  0  0  0  0  0  0  0  0  0
   -5.2266    3.6248    0.7504 C   0  0  0  0  0  0  0  0  0  0  0  0
   -5.9177    4.7185    1.2371 C   0  0  0  0  0  0  0  0  0  0  0  0
   -6.0004    5.8749    0.4841 C   0  0  0  0  0  0  0  0  0  0  0  0
   -5.3989    5.9346   -0.7591 C   0  0  0  0  0  0  0  0  0  0  0  0
   -4.7122    4.8390   -1.2480 C   0  0  0  0  0  0  0  0  0  0  0  0
   -4.6262    3.6840   -0.4934 C   0  0  0  0  0  0  0  0  0  0  0  0
   -5.4921    7.1939   -1.5816 C   0  0  0  0  0  0  0  0  0  0  0  0
   -5.1902    8.4426   -0.7210 C   0  0  0  0  0  0  0  0  0  0  0  0
   -6.1397    9.5007   -1.2330 C   0  0  0  0  0  0  0  0  0  0  0  0
   -7.1000    8.9685   -1.9389 C   0  0  0  0  0  0  0  0  0  0  0  0
   -6.9511    7.4668   -2.0153 C   0  0  0  0  0  0  0  0  0  0  0  0
   -4.5764    7.1250   -2.7765 C   0  0  0  0  0  0  0  0  0  0  0  0
   -5.0310    7.2180   -3.8921 O   0  0  0  0  0  0  0  0  0  0  0  0
   -5.7740    4.8903    6.3980 C   0  0  0  0  0  0  0  0  0  0  0  0
   -1.0283    3.3111    6.0946 C   0  0  0  0  0  0  0  0  0  0  0  0
   -3.4460   -0.5277    1.4202 H   0  0  0  0  0  0  0  0  0  0  0  0
   -1.9967   -0.7836    0.4190 H   0  0  0  0  0  0  0  0  0  0  0  0
   -1.8327   -0.5231    2.1721 H   0  0  0  0  0  0  0  0  0  0  0  0
   -2.9310    1.5376    0.2083 H   0  0  0  0  0  0  0  0  0  0  0  0
   -1.2613    1.5172    0.8247 H   0  0  0  0  0  0  0  0  0  0  0  0
   -3.2252    4.4991    7.1808 H   0  0  0  0  0  0  0  0  0  0  0  0
   -4.9875    1.5104    0.9132 H   0  0  0  0  0  0  0  0  0  0  0  0
   -6.0535    2.2336    2.1415 H   0  0  0  0  0  0  0  0  0  0  0  0
   -6.3906    4.6707    2.2069 H   0  0  0  0  0  0  0  0  0  0  0  0
   -6.5372    6.7307    0.8659 H   0  0  0  0  0  0  0  0  0  0  0  0
   -4.2425    4.8855   -2.2194 H   0  0  0  0  0  0  0  0  0  0  0  0
   -4.0897    2.8281   -0.8753 H   0  0  0  0  0  0  0  0  0  0  0  0
   -5.3849    8.2348    0.3312 H   0  0  0  0  0  0  0  0  0  0  0  0
   -4.1568    8.7597   -0.8614 H   0  0  0  0  0  0  0  0  0  0  0  0
   -6.0370   10.5584   -1.0405 H   0  0  0  0  0  0  0  0  0  0  0  0
   -7.8966    9.5281   -2.4066 H   0  0  0  0  0  0  0  0  0  0  0  0
   -7.1150    7.1204   -3.0357 H   0  0  0  0  0  0  0  0  0  0  0  0
   -7.6476    6.9793   -1.3332 H   0  0  0  0  0  0  0  0  0  0  0  0
   -5.7686    5.9518    6.1506 H   0  0  0  0  0  0  0  0  0  0  0  0
   -5.6082    4.7659    7.4682 H   0  0  0  0  0  0  0  0  0  0  0  0
   -6.7376    4.4590    6.1271 H   0  0  0  0  0  0  0  0  0  0  0  0
   -0.9647    2.3864    6.6681 H   0  0  0  0  0  0  0  0  0  0  0  0
   -0.2924    3.2915    5.2908 H   0  0  0  0  0  0  0  0  0  0  0  0
   -0.8286    4.1593    6.7495 H   0  0  0  0  0  0  0  0  0  0  0  0
   -3.2558    6.9605   -2.6014 O   0  5  0  0  0  0  0  0  0  0  0  0
   -1.9862    2.2538    3.3098 N   0  3  0  0  0  0  0  0  0  0  0  0
   -0.9960    1.9969    3.3971 H   0  0  0  0  0  0  0  0  0  0  0  0
  1  2  1  0  0  0  0
  1 27  1  0  0  0  0
  1 28  1  0  0  0  0
  1 29  1  0  0  0  0
  2  3  1  0  0  0  0
  2 30  1  0  0  0  0
  2 31  1  0  0  0  0
  3 10  1  0  0  0  0
  3 52  2  0  0  0  0
  4  9  2  0  0  0  0
  4  5  1  0  0  0  0
  4 52  1  0  0  0  0
  5  6  2  0  0  0  0
  5 26  1  0  0  0  0
  6  7  1  0  0  0  0
  6 32  1  0  0  0  0
  7  8  2  0  0  0  0
  7 25  1  0  0  0  0
  8  9  1  0  0  0  0
  9 10  1  0  0  0  0
 10 11  1  0  0  0  0
 11 12  1  0  0  0  0
 11 33  1  0  0  0  0
 11 34  1  0  0  0  0
 12 17  2  0  0  0  0
 12 13  1  0  0  0  0
 13 14  2  0  0  0  0
 13 35  1  0  0  0  0
 14 15  1  0  0  0  0
 14 36  1  0  0  0  0
 15 16  2  0  0  0  0
 15 18  1  0  0  0  0
 16 17  1  0  0  0  0
 16 37  1  0  0  0  0
 17 38  1  0  0  0  0
 18 22  1  0  0  0  0
 18 19  1  0  0  0  0
 18 23  1  0  0  0  0
 19 20  1  0  0  0  0
 19 39  1  0  0  0  0
 19 40  1  0  0  0  0
 20 21  2  0  0  0  0
 20 41  1  0  0  0  0
 21 22  1  0  0  0  0
 21 42  1  0  0  0  0
 22 43  1  0  0  0  0
 22 44  1  0  0  0  0
 23 24  2  0  0  0  0
 23 51  1  0  0  0  0
 25 45  1  0  0  0  0
 25 46  1  0  0  0  0
 25 47  1  0  0  0  0
 26 48  1  0  0  0  0
 26 49  1  0  0  0  0
 26 50  1  0  0  0  0
 52 53  1  0  0  0  0
M  CHG  2  51  -1  52   1
M  END
$$$$
ZINC03808465
  -OEChem-08230709463D

 55 58  0     1  0  0  0  0  0999 V2000
   -5.9794    3.7994   -6.6512 C   0  0  0  0  0  0  0  0  0  0  0  0
   -5.8998    3.6177   -5.1342 C   0  0  0  0  0  0  0  0  0  0  0  0
   -6.3866    2.2395   -4.7671 C   0  0  0  0  0  0  0  0  0  0  0  0
   -7.6202    1.9344   -4.4879 N   0  0  0  0  0  0  0  0  0  0  0  0
   -7.7058    0.6109   -4.2021 C   0  0  0  0  0  0  0  0  0  0  0  0
   -8.7582   -0.2372   -3.8436 C   0  0  0  0  0  0  0  0  0  0  0  0
   -8.4740   -1.5708   -3.6207 C   0  0  0  0  0  0  0  0  0  0  0  0
   -7.1712   -2.0243   -3.7569 C   0  0  0  0  0  0  0  0  0  0  0  0
   -6.1938   -1.2094   -4.0954 N   0  0  0  0  0  0  0  0  0  0  0  0
   -6.4112    0.0757   -4.3255 C   0  0  0  0  0  0  0  0  0  0  0  0
   -5.5998    1.1323   -4.6789 N   0  0  0  0  0  0  0  0  0  0  0  0
   -4.1562    1.0732   -4.9212 C   0  0  0  0  0  0  0  0  0  0  0  0
   -3.4194    1.3341   -3.6328 C   0  0  0  0  0  0  0  0  0  0  0  0
   -3.0889    0.2813   -2.8002 C   0  0  0  0  0  0  0  0  0  0  0  0
   -2.4134    0.5207   -1.6181 C   0  0  0  0  0  0  0  0  0  0  0  0
   -2.0677    1.8128   -1.2690 C   0  0  0  0  0  0  0  0  0  0  0  0
   -2.4025    2.8661   -2.0993 C   0  0  0  0  0  0  0  0  0  0  0  0
   -3.0745    2.6263   -3.2833 C   0  0  0  0  0  0  0  0  0  0  0  0
   -1.3313    2.0738    0.0196 C   0  0  1  0  0  0  0  0  0  0  0  0
   -1.0792    3.5784    0.1790 C   0  0  0  0  0  0  0  0  0  0  0  0
   -0.1774    3.7914    1.3969 C   0  0  0  0  0  0  0  0  0  0  0  0
   -0.7164    3.0376    2.5772 C   0  0  0  0  0  0  0  0  0  0  0  0
   -1.5832    2.0801    2.4919 C   0  0  0  0  0  0  0  0  0  0  0  0
   -2.1782    1.5970    1.2016 C   0  0  0  0  0  0  0  0  0  0  0  0
   -0.0161    1.3381    0.0094 C   0  0  0  0  0  0  0  0  0  0  0  0
    0.1825    0.4447    0.7983 O   0  0  0  0  0  0  0  0  0  0  0  0
   -6.8672   -3.4801   -3.5130 C   0  0  0  0  0  0  0  0  0  0  0  0
  -10.1635    0.2890   -3.7038 C   0  0  0  0  0  0  0  0  0  0  0  0
   -5.3552    3.0514   -7.1400 H   0  0  0  0  0  0  0  0  0  0  0  0
   -7.0125    3.6800   -6.9778 H   0  0  0  0  0  0  0  0  0  0  0  0
   -5.6274    4.7962   -6.9167 H   0  0  0  0  0  0  0  0  0  0  0  0
   -6.5241    4.3656   -4.6454 H   0  0  0  0  0  0  0  0  0  0  0  0
   -4.8668    3.7370   -4.8076 H   0  0  0  0  0  0  0  0  0  0  0  0
   -9.2617   -2.2554   -3.3426 H   0  0  0  0  0  0  0  0  0  0  0  0
   -3.8801    1.8285   -5.6570 H   0  0  0  0  0  0  0  0  0  0  0  0
   -3.8911    0.0853   -5.2977 H   0  0  0  0  0  0  0  0  0  0  0  0
   -3.3586   -0.7282   -3.0731 H   0  0  0  0  0  0  0  0  0  0  0  0
   -2.1555   -0.3018   -0.9675 H   0  0  0  0  0  0  0  0  0  0  0  0
   -2.1362    3.8761   -1.8245 H   0  0  0  0  0  0  0  0  0  0  0  0
   -3.3331    3.4489   -3.9336 H   0  0  0  0  0  0  0  0  0  0  0  0
   -0.5865    3.9640   -0.7136 H   0  0  0  0  0  0  0  0  0  0  0  0
   -2.0272    4.0948    0.3299 H   0  0  0  0  0  0  0  0  0  0  0  0
   -0.1369    4.8544    1.6349 H   0  0  0  0  0  0  0  0  0  0  0  0
    0.8266    3.4341    1.1678 H   0  0  0  0  0  0  0  0  0  0  0  0
   -0.3586    3.3108    3.5590 H   0  0  0  0  0  0  0  0  0  0  0  0
   -1.8976    1.5986    3.4061 H   0  0  0  0  0  0  0  0  0  0  0  0
   -3.1906    1.9883    1.1018 H   0  0  0  0  0  0  0  0  0  0  0  0
   -2.2128    0.5076    1.2052 H   0  0  0  0  0  0  0  0  0  0  0  0
   -6.9682   -4.0337   -4.4465 H   0  0  0  0  0  0  0  0  0  0  0  0
   -5.8483   -3.5808   -3.1392 H   0  0  0  0  0  0  0  0  0  0  0  0
   -7.5654   -3.8786   -2.7769 H   0  0  0  0  0  0  0  0  0  0  0  0
  -10.6769    0.2131   -4.6623 H   0  0  0  0  0  0  0  0  0  0  0  0
  -10.6987   -0.2981   -2.9575 H   0  0  0  0  0  0  0  0  0  0  0  0
  -10.1312    1.3325   -3.3905 H   0  0  0  0  0  0  0  0  0  0  0  0
    0.9367    1.6790   -0.8724 O   0  5  0  0  0  0  0  0  0  0  0  0
  1  2  1  0  0  0  0
  1 29  1  0  0  0  0
  1 30  1  0  0  0  0
  1 31  1  0  0  0  0
  2  3  1  0  0  0  0
  2 32  1  0  0  0  0
  2 33  1  0  0  0  0
  3 11  1  0  0  0  0
  3  4  2  0  0  0  0
  4  5  1  0  0  0  0
  5 10  2  0  0  0  0
  5  6  1  0  0  0  0
  6  7  2  0  0  0  0
  6 28  1  0  0  0  0
  7  8  1  0  0  0  0
  7 34  1  0  0  0  0
  8  9  2  0  0  0  0
  8 27  1  0  0  0  0
  9 10  1  0  0  0  0
 10 11  1  0  0  0  0
 11 12  1  0  0  0  0
 12 13  1  0  0  0  0
 12 35  1  0  0  0  0
 12 36  1  0  0  0  0
 13 18  2  0  0  0  0
 13 14  1  0  0  0  0
 14 15  2  0  0  0  0
 14 37  1  0  0  0  0
 15 16  1  0  0  0  0
 15 38  1  0  0  0  0
 16 17  2  0  0  0  0
 16 19  1  0  0  0  0
 17 18  1  0  0  0  0
 17 39  1  0  0  0  0
 18 40  1  0  0  0  0
 19 24  1  0  0  0  0
 19 20  1  0  0  0  0
 19 25  1  0  0  0  0
 20 21  1  0  0  0  0
 20 41  1  0  0  0  0
 20 42  1  0  0  0  0
 21 22  1  0  0  0  0
 21 43  1  0  0  0  0
 21 44  1  0  0  0  0
 22 23  2  0  0  0  0
 22 45  1  0  0  0  0
 23 24  1  0  0  0  0
 23 46  1  0  0  0  0
 24 47  1  0  0  0  0
 24 48  1  0  0  0  0
 25 26  2  0  0  0  0
 25 55  1  0  0  0  0
 27 49  1  0  0  0  0
 27 50  1  0  0  0  0
 27 51  1  0  0  0  0
 28 52  1  0  0  0  0
 28 53  1  0  0  0  0
 28 54  1  0  0  0  0
M  CHG  1  55  -1
M  END
$$$$
ZINC03808465
  -OEChem-08230709463D

 56 59  0     1  0  0  0  0  0999 V2000
   -5.9794    3.7994   -6.6512 C   0  0  0  0  0  0  0  0  0  0  0  0
   -5.8998    3.6177   -5.1342 C   0  0  0  0  0  0  0  0  0  0  0  0
   -6.3866    2.2395   -4.7671 C   0  0  0  0  0  0  0  0  0  0  0  0
   -7.7058    0.6109   -4.2021 C   0  0  0  0  0  0  0  0  0  0  0  0
   -8.7582   -0.2372   -3.8436 C   0  0  0  0  0  0  0  0  0  0  0  0
   -8.4740   -1.5708   -3.6207 C   0  0  0  0  0  0  0  0  0  0  0  0
   -7.1712   -2.0243   -3.7569 C   0  0  0  0  0  0  0  0  0  0  0  0
   -6.1938   -1.2094   -4.0954 N   0  0  0  0  0  0  0  0  0  0  0  0
   -6.4112    0.0757   -4.3255 C   0  0  0  0  0  0  0  0  0  0  0  0
   -5.5998    1.1323   -4.6789 N   0  0  0  0  0  0  0  0  0  0  0  0
   -4.1562    1.0732   -4.9212 C   0  0  0  0  0  0  0  0  0  0  0  0
   -3.4194    1.3341   -3.6328 C   0  0  0  0  0  0  0  0  0  0  0  0
   -3.0889    0.2813   -2.8002 C   0  0  0  0  0  0  0  0  0  0  0  0
   -2.4134    0.5207   -1.6181 C   0  0  0  0  0  0  0  0  0  0  0  0
   -2.0677    1.8128   -1.2690 C   0  0  0  0  0  0  0  0  0  0  0  0
   -2.4025    2.8661   -2.0993 C   0  0  0  0  0  0  0  0  0  0  0  0
   -3.0745    2.6263   -3.2833 C   0  0  0  0  0  0  0  0  0  0  0  0
   -1.3313    2.0738    0.0196 C   0  0  1  0  0  0  0  0  0  0  0  0
   -1.0792    3.5784    0.1790 C   0  0  0  0  0  0  0  0  0  0  0  0
   -0.1774    3.7914    1.3969 C   0  0  0  0  0  0  0  0  0  0  0  0
   -0.7164    3.0376    2.5772 C   0  0  0  0  0  0  0  0  0  0  0  0
   -1.5832    2.0801    2.4919 C   0  0  0  0  0  0  0  0  0  0  0  0
   -2.1782    1.5970    1.2016 C   0  0  0  0  0  0  0  0  0  0  0  0
   -0.0161    1.3381    0.0094 C   0  0  0  0  0  0  0  0  0  0  0  0
    0.1825    0.4447    0.7983 O   0  0  0  0  0  0  0  0  0  0  0  0
   -6.8672   -3.4801   -3.5130 C   0  0  0  0  0  0  0  0  0  0  0  0
  -10.1635    0.2890   -3.7038 C   0  0  0  0  0  0  0  0  0  0  0  0
   -5.3552    3.0514   -7.1400 H   0  0  0  0  0  0  0  0  0  0  0  0
   -7.0125    3.6800   -6.9778 H   0  0  0  0  0  0  0  0  0  0  0  0
   -5.6274    4.7962   -6.9167 H   0  0  0  0  0  0  0  0  0  0  0  0
   -6.5241    4.3656   -4.6454 H   0  0  0  0  0  0  0  0  0  0  0  0
   -4.8668    3.7370   -4.8076 H   0  0  0  0  0  0  0  0  0  0  0  0
   -9.2617   -2.2554   -3.3426 H   0  0  0  0  0  0  0  0  0  0  0  0
   -3.8801    1.8285   -5.6570 H   0  0  0  0  0  0  0  0  0  0  0  0
   -3.8911    0.0853   -5.2977 H   0  0  0  0  0  0  0  0  0  0  0  0
   -3.3586   -0.7282   -3.0731 H   0  0  0  0  0  0  0  0  0  0  0  0
   -2.1555   -0.3018   -0.9675 H   0  0  0  0  0  0  0  0  0  0  0  0
   -2.1362    3.8761   -1.8245 H   0  0  0  0  0  0  0  0  0  0  0  0
   -3.3331    3.4489   -3.9336 H   0  0  0  0  0  0  0  0  0  0  0  0
   -0.5865    3.9640   -0.7136 H   0  0  0  0  0  0  0  0  0  0  0  0
   -2.0272    4.0948    0.3299 H   0  0  0  0  0  0  0  0  0  0  0  0
   -0.1369    4.8544    1.6349 H   0  0  0  0  0  0  0  0  0  0  0  0
    0.8266    3.4341    1.1678 H   0  0  0  0  0  0  0  0  0  0  0  0
   -0.3586    3.3108    3.5590 H   0  0  0  0  0  0  0  0  0  0  0  0
   -1.8976    1.5986    3.4061 H   0  0  0  0  0  0  0  0  0  0  0  0
   -3.1906    1.9883    1.1018 H   0  0  0  0  0  0  0  0  0  0  0  0
   -2.2128    0.5076    1.2052 H   0  0  0  0  0  0  0  0  0  0  0  0
   -6.9682   -4.0337   -4.4465 H   0  0  0  0  0  0  0  0  0  0  0  0
   -5.8483   -3.5808   -3.1392 H   0  0  0  0  0  0  0  0  0  0  0  0
   -7.5654   -3.8786   -2.7769 H   0  0  0  0  0  0  0  0  0  0  0  0
  -10.6769    0.2131   -4.6623 H   0  0  0  0  0  0  0  0  0  0  0  0
  -10.6987   -0.2981   -2.9575 H   0  0  0  0  0  0  0  0  0  0  0  0
  -10.1312    1.3325   -3.3905 H   0  0  0  0  0  0  0  0  0  0  0  0
    0.9367    1.6790   -0.8724 O   0  5  0  0  0  0  0  0  0  0  0  0
   -7.6203    1.9345   -4.4879 N   0  3  0  0  0  0  0  0  0  0  0  0
   -8.4076    2.5937   -4.4844 H   0  0  0  0  0  0  0  0  0  0  0  0
  1  2  1  0  0  0  0
  1 28  1  0  0  0  0
  1 29  1  0  0  0  0
  1 30  1  0  0  0  0
  2  3  1  0  0  0  0
  2 31  1  0  0  0  0
  2 32  1  0  0  0  0
  3 10  1  0  0  0  0
  3 55  2  0  0  0  0
  4  9  2  0  0  0  0
  4  5  1  0  0  0  0
  4 55  1  0  0  0  0
  5  6  2  0  0  0  0
  5 27  1  0  0  0  0
  6  7  1  0  0  0  0
  6 33  1  0  0  0  0
  7  8  2  0  0  0  0
  7 26  1  0  0  0  0
  8  9  1  0  0  0  0
  9 10  1  0  0  0  0
 10 11  1  0  0  0  0
 11 12  1  0  0  0  0
 11 34  1  0  0  0  0
 11 35  1  0  0  0  0
 12 17  2  0  0  0  0
 12 13  1  0  0  0  0
 13 14  2  0  0  0  0
 13 36  1  0  0  0  0
 14 15  1  0  0  0  0
 14 37  1  0  0  0  0
 15 16  2  0  0  0  0
 15 18  1  0  0  0  0
 16 17  1  0  0  0  0
 16 38  1  0  0  0  0
 17 39  1  0  0  0  0
 18 23  1  0  0  0  0
 18 19  1  0  0  0  0
 18 24  1  0  0  0  0
 19 20  1  0  0  0  0
 19 40  1  0  0  0  0
 19 41  1  0  0  0  0
 20 21  1  0  0  0  0
 20 42  1  0  0  0  0
 20 43  1  0  0  0  0
 21 22  2  0  0  0  0
 21 44  1  0  0  0  0
 22 23  1  0  0  0  0
 22 45  1  0  0  0  0
 23 46  1  0  0  0  0
 23 47  1  0  0  0  0
 24 25  2  0  0  0  0
 24 54  1  0  0  0  0
 26 48  1  0  0  0  0
 26 49  1  0  0  0  0
 26 50  1  0  0  0  0
 27 51  1  0  0  0  0
 27 52  1  0  0  0  0
 27 53  1  0  0  0  0
 55 56  1  0  0  0  0
M  CHG  2  54  -1  55   1
M  END
$$$$
ZINC03808467
  -OEChem-08230709463D

 52 55  0     1  0  0  0  0  0999 V2000
   -0.6017   -0.5402    6.3303 C   0  0  0  0  0  0  0  0  0  0  0  0
    0.3985   -1.0362    5.2840 C   0  0  0  0  0  0  0  0  0  0  0  0
    0.4241   -0.0791    4.1203 C   0  0  0  0  0  0  0  0  0  0  0  0
    1.2369    0.9301    4.0028 N   0  0  0  0  0  0  0  0  0  0  0  0
    0.9882    1.5785    2.8374 C   0  0  0  0  0  0  0  0  0  0  0  0
    1.5441    2.7004    2.2146 C   0  0  0  0  0  0  0  0  0  0  0  0
    1.0282    3.0912    0.9939 C   0  0  0  0  0  0  0  0  0  0  0  0
   -0.0119    2.3700    0.4287 C   0  0  0  0  0  0  0  0  0  0  0  0
   -0.5215    1.3157    1.0311 N   0  0  0  0  0  0  0  0  0  0  0  0
   -0.0655    0.8983    2.2013 C   0  0  0  0  0  0  0  0  0  0  0  0
   -0.3956   -0.1477    3.0358 N   0  0  0  0  0  0  0  0  0  0  0  0
   -1.4398   -1.1480    2.8005 C   0  0  0  0  0  0  0  0  0  0  0  0
   -0.8781   -2.2756    1.9736 C   0  0  0  0  0  0  0  0  0  0  0  0
   -0.8637   -2.1809    0.5945 C   0  0  0  0  0  0  0  0  0  0  0  0
   -0.3440   -3.2132   -0.1638 C   0  0  0  0  0  0  0  0  0  0  0  0
    0.1518   -4.3448    0.4564 C   0  0  0  0  0  0  0  0  0  0  0  0
    0.1327   -4.4417    1.8353 C   0  0  0  0  0  0  0  0  0  0  0  0
   -0.3823   -3.4072    2.5938 C   0  0  0  0  0  0  0  0  0  0  0  0
    0.7127   -5.4728   -0.3705 C   0  0  1  0  0  0  0  0  0  0  0  0
    0.2890   -6.8964   -0.0034 C   0  0  0  0  0  0  0  0  0  0  0  0
   -0.2580   -6.2385   -1.2718 C   0  0  1  0  0  0  0  0  0  0  0  0
    0.1206   -6.5976   -2.2288 H   0  0  0  0  0  0  0  0  0  0  0  0
   -1.7019   -5.8069   -1.2646 C   0  0  0  0  0  0  0  0  0  0  0  0
   -2.2889   -5.4651   -2.3847 C   0  0  0  0  0  0  0  0  0  0  0  0
    2.1190   -5.2729   -0.8739 C   0  0  0  0  0  0  0  0  0  0  0  0
    2.4422   -5.7094   -1.9531 O   0  0  0  0  0  0  0  0  0  0  0  0
   -0.5706    2.8010   -0.9030 C   0  0  0  0  0  0  0  0  0  0  0  0
    2.6744    3.4623    2.8574 C   0  0  0  0  0  0  0  0  0  0  0  0
   -1.5774   -0.4036    5.8641 H   0  0  0  0  0  0  0  0  0  0  0  0
   -0.2583    0.4100    6.7394 H   0  0  0  0  0  0  0  0  0  0  0  0
   -0.6818   -1.2735    7.1327 H   0  0  0  0  0  0  0  0  0  0  0  0
    1.3917   -1.0935    5.7293 H   0  0  0  0  0  0  0  0  0  0  0  0
    0.0992   -2.0245    4.9351 H   0  0  0  0  0  0  0  0  0  0  0  0
    1.4328    3.9527    0.4834 H   0  0  0  0  0  0  0  0  0  0  0  0
   -1.7913   -1.5380    3.7558 H   0  0  0  0  0  0  0  0  0  0  0  0
   -2.2717   -0.6866    2.2683 H   0  0  0  0  0  0  0  0  0  0  0  0
   -1.2551   -1.2987    0.1098 H   0  0  0  0  0  0  0  0  0  0  0  0
   -0.3293   -3.1376   -1.2411 H   0  0  0  0  0  0  0  0  0  0  0  0
    0.5197   -5.3259    2.3198 H   0  0  0  0  0  0  0  0  0  0  0  0
   -0.3976   -3.4831    3.6710 H   0  0  0  0  0  0  0  0  0  0  0  0
    1.0276   -7.6887   -0.1257 H   0  0  0  0  0  0  0  0  0  0  0  0
   -0.3954   -7.0170    0.8363 H   0  0  0  0  0  0  0  0  0  0  0  0
   -2.2526   -5.7795   -0.3360 H   0  0  0  0  0  0  0  0  0  0  0  0
   -3.3236   -5.1558   -2.3795 H   0  0  0  0  0  0  0  0  0  0  0  0
   -1.7381   -5.4925   -3.3133 H   0  0  0  0  0  0  0  0  0  0  0  0
   -0.0259    2.3016   -1.7043 H   0  0  0  0  0  0  0  0  0  0  0  0
   -1.6255    2.5325   -0.9584 H   0  0  0  0  0  0  0  0  0  0  0  0
   -0.4643    3.8806   -1.0093 H   0  0  0  0  0  0  0  0  0  0  0  0
    3.6265    3.0427    2.5324 H   0  0  0  0  0  0  0  0  0  0  0  0
    2.6198    4.5103    2.5630 H   0  0  0  0  0  0  0  0  0  0  0  0
    2.5944    3.3848    3.9417 H   0  0  0  0  0  0  0  0  0  0  0  0
    3.0126   -4.6097   -0.1232 O   0  5  0  0  0  0  0  0  0  0  0  0
  1  2  1  0  0  0  0
  1 29  1  0  0  0  0
  1 30  1  0  0  0  0
  1 31  1  0  0  0  0
  2  3  1  0  0  0  0
  2 32  1  0  0  0  0
  2 33  1  0  0  0  0
  3 11  1  0  0  0  0
  3  4  2  0  0  0  0
  4  5  1  0  0  0  0
  5 10  2  0  0  0  0
  5  6  1  0  0  0  0
  6  7  2  0  0  0  0
  6 28  1  0  0  0  0
  7  8  1  0  0  0  0
  7 34  1  0  0  0  0
  8  9  2  0  0  0  0
  8 27  1  0  0  0  0
  9 10  1  0  0  0  0
 10 11  1  0  0  0  0
 11 12  1  0  0  0  0
 12 13  1  0  0  0  0
 12 35  1  0  0  0  0
 12 36  1  0  0  0  0
 13 18  2  0  0  0  0
 13 14  1  0  0  0  0
 14 15  2  0  0  0  0
 14 37  1  0  0  0  0
 15 16  1  0  0  0  0
 15 38  1  0  0  0  0
 16 17  2  0  0  0  0
 16 19  1  0  0  0  0
 17 18  1  0  0  0  0
 17 39  1  0  0  0  0
 18 40  1  0  0  0  0
 19 21  1  0  0  0  0
 19 20  1  0  0  0  0
 19 25  1  0  0  0  0
 20 21  1  0  0  0  0
 20 41  1  0  0  0  0
 20 42  1  0  0  0  0
 21 22  1  0  0  0  0
 21 23  1  0  0  0  0
 23 24  2  0  0  0  0
 23 43  1  0  0  0  0
 24 44  1  0  0  0  0
 24 45  1  0  0  0  0
 25 26  2  0  0  0  0
 25 52  1  0  0  0  0
 27 46  1  0  0  0  0
 27 47  1  0  0  0  0
 27 48  1  0  0  0  0
 28 49  1  0  0  0  0
 28 50  1  0  0  0  0
 28 51  1  0  0  0  0
M  CHG  1  52  -1
M  END
$$$$
ZINC03808467
  -OEChem-08230709463D

 53 56  0     1  0  0  0  0  0999 V2000
   -0.6017   -0.5402    6.3303 C   0  0  0  0  0  0  0  0  0  0  0  0
    0.3985   -1.0362    5.2840 C   0  0  0  0  0  0  0  0  0  0  0  0
    0.4241   -0.0791    4.1203 C   0  0  0  0  0  0  0  0  0  0  0  0
    0.9882    1.5785    2.8374 C   0  0  0  0  0  0  0  0  0  0  0  0
    1.5441    2.7004    2.2146 C   0  0  0  0  0  0  0  0  0  0  0  0
    1.0282    3.0912    0.9939 C   0  0  0  0  0  0  0  0  0  0  0  0
   -0.0119    2.3700    0.4287 C   0  0  0  0  0  0  0  0  0  0  0  0
   -0.5215    1.3157    1.0311 N   0  0  0  0  0  0  0  0  0  0  0  0
   -0.0655    0.8983    2.2013 C   0  0  0  0  0  0  0  0  0  0  0  0
   -0.3956   -0.1477    3.0358 N   0  0  0  0  0  0  0  0  0  0  0  0
   -1.4398   -1.1480    2.8005 C   0  0  0  0  0  0  0  0  0  0  0  0
   -0.8781   -2.2756    1.9736 C   0  0  0  0  0  0  0  0  0  0  0  0
   -0.8637   -2.1809    0.5945 C   0  0  0  0  0  0  0  0  0  0  0  0
   -0.3440   -3.2132   -0.1638 C   0  0  0  0  0  0  0  0  0  0  0  0
    0.1518   -4.3448    0.4564 C   0  0  0  0  0  0  0  0  0  0  0  0
    0.1327   -4.4417    1.8353 C   0  0  0  0  0  0  0  0  0  0  0  0
   -0.3823   -3.4072    2.5938 C   0  0  0  0  0  0  0  0  0  0  0  0
    0.7127   -5.4728   -0.3705 C   0  0  1  0  0  0  0  0  0  0  0  0
    0.2890   -6.8964   -0.0034 C   0  0  0  0  0  0  0  0  0  0  0  0
   -0.2580   -6.2385   -1.2718 C   0  0  1  0  0  0  0  0  0  0  0  0
    0.1206   -6.5976   -2.2288 H   0  0  0  0  0  0  0  0  0  0  0  0
   -1.7019   -5.8069   -1.2646 C   0  0  0  0  0  0  0  0  0  0  0  0
   -2.2889   -5.4651   -2.3847 C   0  0  0  0  0  0  0  0  0  0  0  0
    2.1190   -5.2729   -0.8739 C   0  0  0  0  0  0  0  0  0  0  0  0
    2.4422   -5.7094   -1.9531 O   0  0  0  0  0  0  0  0  0  0  0  0
   -0.5706    2.8010   -0.9030 C   0  0  0  0  0  0  0  0  0  0  0  0
    2.6744    3.4623    2.8574 C   0  0  0  0  0  0  0  0  0  0  0  0
   -1.5774   -0.4036    5.8641 H   0  0  0  0  0  0  0  0  0  0  0  0
   -0.2583    0.4100    6.7394 H   0  0  0  0  0  0  0  0  0  0  0  0
   -0.6818   -1.2735    7.1327 H   0  0  0  0  0  0  0  0  0  0  0  0
    1.3917   -1.0935    5.7293 H   0  0  0  0  0  0  0  0  0  0  0  0
    0.0992   -2.0245    4.9351 H   0  0  0  0  0  0  0  0  0  0  0  0
    1.4328    3.9527    0.4834 H   0  0  0  0  0  0  0  0  0  0  0  0
   -1.7913   -1.5380    3.7558 H   0  0  0  0  0  0  0  0  0  0  0  0
   -2.2717   -0.6866    2.2683 H   0  0  0  0  0  0  0  0  0  0  0  0
   -1.2551   -1.2987    0.1098 H   0  0  0  0  0  0  0  0  0  0  0  0
   -0.3293   -3.1376   -1.2411 H   0  0  0  0  0  0  0  0  0  0  0  0
    0.5197   -5.3259    2.3198 H   0  0  0  0  0  0  0  0  0  0  0  0
   -0.3976   -3.4831    3.6710 H   0  0  0  0  0  0  0  0  0  0  0  0
    1.0276   -7.6887   -0.1257 H   0  0  0  0  0  0  0  0  0  0  0  0
   -0.3954   -7.0170    0.8363 H   0  0  0  0  0  0  0  0  0  0  0  0
   -2.2526   -5.7795   -0.3360 H   0  0  0  0  0  0  0  0  0  0  0  0
   -3.3236   -5.1558   -2.3795 H   0  0  0  0  0  0  0  0  0  0  0  0
   -1.7381   -5.4925   -3.3133 H   0  0  0  0  0  0  0  0  0  0  0  0
   -0.0259    2.3016   -1.7043 H   0  0  0  0  0  0  0  0  0  0  0  0
   -1.6255    2.5325   -0.9584 H   0  0  0  0  0  0  0  0  0  0  0  0
   -0.4643    3.8806   -1.0093 H   0  0  0  0  0  0  0  0  0  0  0  0
    3.6265    3.0427    2.5324 H   0  0  0  0  0  0  0  0  0  0  0  0
    2.6198    4.5103    2.5630 H   0  0  0  0  0  0  0  0  0  0  0  0
    2.5944    3.3848    3.9417 H   0  0  0  0  0  0  0  0  0  0  0  0
    3.0126   -4.6097   -0.1232 O   0  5  0  0  0  0  0  0  0  0  0  0
    1.2370    0.9301    4.0029 N   0  3  0  0  0  0  0  0  0  0  0  0
    1.9557    1.1949    4.6867 H   0  0  0  0  0  0  0  0  0  0  0  0
  1  2  1  0  0  0  0
  1 28  1  0  0  0  0
  1 29  1  0  0  0  0
  1 30  1  0  0  0  0
  2  3  1  0  0  0  0
  2 31  1  0  0  0  0
  2 32  1  0  0  0  0
  3 10  1  0  0  0  0
  3 52  2  0  0  0  0
  4  9  2  0  0  0  0
  4  5  1  0  0  0  0
  4 52  1  0  0  0  0
  5  6  2  0  0  0  0
  5 27  1  0  0  0  0
  6  7  1  0  0  0  0
  6 33  1  0  0  0  0
  7  8  2  0  0  0  0
  7 26  1  0  0  0  0
  8  9  1  0  0  0  0
  9 10  1  0  0  0  0
 10 11  1  0  0  0  0
 11 12  1  0  0  0  0
 11 34  1  0  0  0  0
 11 35  1  0  0  0  0
 12 17  2  0  0  0  0
 12 13  1  0  0  0  0
 13 14  2  0  0  0  0
 13 36  1  0  0  0  0
 14 15  1  0  0  0  0
 14 37  1  0  0  0  0
 15 16  2  0  0  0  0
 15 18  1  0  0  0  0
 16 17  1  0  0  0  0
 16 38  1  0  0  0  0
 17 39  1  0  0  0  0
 18 20  1  0  0  0  0
 18 19  1  0  0  0  0
 18 24  1  0  0  0  0
 19 20  1  0  0  0  0
 19 40  1  0  0  0  0
 19 41  1  0  0  0  0
 20 21  1  0  0  0  0
 20 22  1  0  0  0  0
 22 23  2  0  0  0  0
 22 42  1  0  0  0  0
 23 43  1  0  0  0  0
 23 44  1  0  0  0  0
 24 25  2  0  0  0  0
 24 51  1  0  0  0  0
 26 45  1  0  0  0  0
 26 46  1  0  0  0  0
 26 47  1  0  0  0  0
 27 48  1  0  0  0  0
 27 49  1  0  0  0  0
 27 50  1  0  0  0  0
 52 53  1  0  0  0  0
M  CHG  2  51  -1  52   1
M  END
$$$$
ZINC03808469
  -OEChem-08230709463D

 54 57  0     0  0  0  0  0  0999 V2000
   -4.4227   -1.3992   -7.6647 C   0  0  0  0  0  0  0  0  0  0  0  0
   -3.2126   -1.1095   -6.7744 C   0  0  0  0  0  0  0  0  0  0  0  0
   -3.0385    0.3807   -6.6327 C   0  0  0  0  0  0  0  0  0  0  0  0
   -2.3214    1.1258   -7.4221 N   0  0  0  0  0  0  0  0  0  0  0  0
   -2.3839    2.4161   -7.0074 C   0  0  0  0  0  0  0  0  0  0  0  0
   -1.8228    3.6108   -7.4690 C   0  0  0  0  0  0  0  0  0  0  0  0
   -2.1091    4.7743   -6.7810 C   0  0  0  0  0  0  0  0  0  0  0  0
   -2.9333    4.7250   -5.6676 C   0  0  0  0  0  0  0  0  0  0  0  0
   -3.4521    3.5895   -5.2487 N   0  0  0  0  0  0  0  0  0  0  0  0
   -3.2149    2.4470   -5.8733 C   0  0  0  0  0  0  0  0  0  0  0  0
   -3.6082    1.1434   -5.6598 N   0  0  0  0  0  0  0  0  0  0  0  0
   -4.4839    0.6670   -4.5864 C   0  0  0  0  0  0  0  0  0  0  0  0
   -3.6510    0.2911   -3.3881 C   0  0  0  0  0  0  0  0  0  0  0  0
   -3.3652    1.2365   -2.4209 C   0  0  0  0  0  0  0  0  0  0  0  0
   -2.6019    0.8915   -1.3213 C   0  0  0  0  0  0  0  0  0  0  0  0
   -2.1247   -0.3991   -1.1886 C   0  0  0  0  0  0  0  0  0  0  0  0
   -2.4061   -1.3432   -2.1584 C   0  0  0  0  0  0  0  0  0  0  0  0
   -3.1730   -0.9992   -3.2558 C   0  0  0  0  0  0  0  0  0  0  0  0
   -1.2926   -0.7753    0.0102 C   0  0  0  0  0  0  0  0  0  0  0  0
   -0.1231    0.2116    0.1720 C   0  0  0  0  0  0  0  0  0  0  0  0
   -0.3000    0.8825    1.5499 C   0  0  0  0  0  0  0  0  0  0  0  0
   -1.1510   -0.1283    2.3581 C   0  0  0  0  0  0  0  0  0  0  0  0
   -2.1394   -0.6696    1.2954 C   0  0  0  0  0  0  0  0  0  0  0  0
   -0.7660   -2.1785   -0.1471 C   0  0  0  0  0  0  0  0  0  0  0  0
   -1.0329   -3.0200    0.6778 O   0  0  0  0  0  0  0  0  0  0  0  0
   -3.2425    5.9973   -4.9214 C   0  0  0  0  0  0  0  0  0  0  0  0
   -0.9301    3.6288   -8.6830 C   0  0  0  0  0  0  0  0  0  0  0  0
   -5.3171   -0.9703   -7.2130 H   0  0  0  0  0  0  0  0  0  0  0  0
   -4.2644   -0.9568   -8.6482 H   0  0  0  0  0  0  0  0  0  0  0  0
   -4.5486   -2.4771   -7.7672 H   0  0  0  0  0  0  0  0  0  0  0  0
   -2.3182   -1.5385   -7.2262 H   0  0  0  0  0  0  0  0  0  0  0  0
   -3.3709   -1.5520   -5.7909 H   0  0  0  0  0  0  0  0  0  0  0  0
   -1.6938    5.7158   -7.1086 H   0  0  0  0  0  0  0  0  0  0  0  0
   -5.0394   -0.2053   -4.9308 H   0  0  0  0  0  0  0  0  0  0  0  0
   -5.1825    1.4567   -4.3100 H   0  0  0  0  0  0  0  0  0  0  0  0
   -3.7386    2.2447   -2.5242 H   0  0  0  0  0  0  0  0  0  0  0  0
   -2.3786    1.6301   -0.5657 H   0  0  0  0  0  0  0  0  0  0  0  0
   -2.0296   -2.3503   -2.0569 H   0  0  0  0  0  0  0  0  0  0  0  0
   -3.3966   -1.7380   -4.0113 H   0  0  0  0  0  0  0  0  0  0  0  0
    0.8253   -0.3244    0.1367 H   0  0  0  0  0  0  0  0  0  0  0  0
   -0.1572    0.9634   -0.6164 H   0  0  0  0  0  0  0  0  0  0  0  0
   -0.8285    1.8303    1.4477 H   0  0  0  0  0  0  0  0  0  0  0  0
    0.6680    1.0339    2.0275 H   0  0  0  0  0  0  0  0  0  0  0  0
   -1.6868    0.3745    3.1632 H   0  0  0  0  0  0  0  0  0  0  0  0
   -0.5274   -0.9317    2.7503 H   0  0  0  0  0  0  0  0  0  0  0  0
   -2.9650    0.0275    1.1521 H   0  0  0  0  0  0  0  0  0  0  0  0
   -2.5157   -1.6505    1.5860 H   0  0  0  0  0  0  0  0  0  0  0  0
   -4.1371    6.4568   -5.3418 H   0  0  0  0  0  0  0  0  0  0  0  0
   -3.4115    5.7694   -3.8689 H   0  0  0  0  0  0  0  0  0  0  0  0
   -2.4026    6.6859   -5.0137 H   0  0  0  0  0  0  0  0  0  0  0  0
   -1.5347    3.7861   -9.5763 H   0  0  0  0  0  0  0  0  0  0  0  0
   -0.2045    4.4366   -8.5885 H   0  0  0  0  0  0  0  0  0  0  0  0
   -0.4055    2.6766   -8.7624 H   0  0  0  0  0  0  0  0  0  0  0  0
   -0.0004   -2.4934   -1.2037 O   0  5  0  0  0  0  0  0  0  0  0  0
  1  2  1  0  0  0  0
  1 28  1  0  0  0  0
  1 29  1  0  0  0  0
  1 30  1  0  0  0  0
  2  3  1  0  0  0  0
  2 31  1  0  0  0  0
  2 32  1  0  0  0  0
  3 11  1  0  0  0  0
  3  4  2  0  0  0  0
  4  5  1  0  0  0  0
  5 10  2  0  0  0  0
  5  6  1  0  0  0  0
  6  7  2  0  0  0  0
  6 27  1  0  0  0  0
  7  8  1  0  0  0  0
  7 33  1  0  0  0  0
  8  9  2  0  0  0  0
  8 26  1  0  0  0  0
  9 10  1  0  0  0  0
 10 11  1  0  0  0  0
 11 12  1  0  0  0  0
 12 13  1  0  0  0  0
 12 34  1  0  0  0  0
 12 35  1  0  0  0  0
 13 18  2  0  0  0  0
 13 14  1  0  0  0  0
 14 15  2  0  0  0  0
 14 36  1  0  0  0  0
 15 16  1  0  0  0  0
 15 37  1  0  0  0  0
 16 17  2  0  0  0  0
 16 19  1  0  0  0  0
 17 18  1  0  0  0  0
 17 38  1  0  0  0  0
 18 39  1  0  0  0  0
 19 23  1  0  0  0  0
 19 20  1  0  0  0  0
 19 24  1  0  0  0  0
 20 21  1  0  0  0  0
 20 40  1  0  0  0  0
 20 41  1  0  0  0  0
 21 22  1  0  0  0  0
 21 42  1  0  0  0  0
 21 43  1  0  0  0  0
 22 23  1  0  0  0  0
 22 44  1  0  0  0  0
 22 45  1  0  0  0  0
 23 46  1  0  0  0  0
 23 47  1  0  0  0  0
 24 25  2  0  0  0  0
 24 54  1  0  0  0  0
 26 48  1  0  0  0  0
 26 49  1  0  0  0  0
 26 50  1  0  0  0  0
 27 51  1  0  0  0  0
 27 52  1  0  0  0  0
 27 53  1  0  0  0  0
M  CHG  1  54  -1
M  END
$$$$
ZINC03808469
  -OEChem-08230709463D

 55 58  0     0  0  0  0  0  0999 V2000
   -4.4227   -1.3992   -7.6647 C   0  0  0  0  0  0  0  0  0  0  0  0
   -3.2126   -1.1095   -6.7744 C   0  0  0  0  0  0  0  0  0  0  0  0
   -3.0385    0.3807   -6.6327 C   0  0  0  0  0  0  0  0  0  0  0  0
   -2.3839    2.4161   -7.0074 C   0  0  0  0  0  0  0  0  0  0  0  0
   -1.8228    3.6108   -7.4690 C   0  0  0  0  0  0  0  0  0  0  0  0
   -2.1091    4.7743   -6.7810 C   0  0  0  0  0  0  0  0  0  0  0  0
   -2.9333    4.7250   -5.6676 C   0  0  0  0  0  0  0  0  0  0  0  0
   -3.4521    3.5895   -5.2487 N   0  0  0  0  0  0  0  0  0  0  0  0
   -3.2149    2.4470   -5.8733 C   0  0  0  0  0  0  0  0  0  0  0  0
   -3.6082    1.1434   -5.6598 N   0  0  0  0  0  0  0  0  0  0  0  0
   -4.4839    0.6670   -4.5864 C   0  0  0  0  0  0  0  0  0  0  0  0
   -3.6510    0.2911   -3.3881 C   0  0  0  0  0  0  0  0  0  0  0  0
   -3.3652    1.2365   -2.4209 C   0  0  0  0  0  0  0  0  0  0  0  0
   -2.6019    0.8915   -1.3213 C   0  0  0  0  0  0  0  0  0  0  0  0
   -2.1247   -0.3991   -1.1886 C   0  0  0  0  0  0  0  0  0  0  0  0
   -2.4061   -1.3432   -2.1584 C   0  0  0  0  0  0  0  0  0  0  0  0
   -3.1730   -0.9992   -3.2558 C   0  0  0  0  0  0  0  0  0  0  0  0
   -1.2926   -0.7753    0.0102 C   0  0  0  0  0  0  0  0  0  0  0  0
   -0.1231    0.2116    0.1720 C   0  0  0  0  0  0  0  0  0  0  0  0
   -0.3000    0.8825    1.5499 C   0  0  0  0  0  0  0  0  0  0  0  0
   -1.1510   -0.1283    2.3581 C   0  0  0  0  0  0  0  0  0  0  0  0
   -2.1394   -0.6696    1.2954 C   0  0  0  0  0  0  0  0  0  0  0  0
   -0.7660   -2.1785   -0.1471 C   0  0  0  0  0  0  0  0  0  0  0  0
   -1.0329   -3.0200    0.6778 O   0  0  0  0  0  0  0  0  0  0  0  0
   -3.2425    5.9973   -4.9214 C   0  0  0  0  0  0  0  0  0  0  0  0
   -0.9301    3.6288   -8.6830 C   0  0  0  0  0  0  0  0  0  0  0  0
   -5.3171   -0.9703   -7.2130 H   0  0  0  0  0  0  0  0  0  0  0  0
   -4.2644   -0.9568   -8.6482 H   0  0  0  0  0  0  0  0  0  0  0  0
   -4.5486   -2.4771   -7.7672 H   0  0  0  0  0  0  0  0  0  0  0  0
   -2.3182   -1.5385   -7.2262 H   0  0  0  0  0  0  0  0  0  0  0  0
   -3.3709   -1.5520   -5.7909 H   0  0  0  0  0  0  0  0  0  0  0  0
   -1.6938    5.7158   -7.1086 H   0  0  0  0  0  0  0  0  0  0  0  0
   -5.0394   -0.2053   -4.9308 H   0  0  0  0  0  0  0  0  0  0  0  0
   -5.1825    1.4567   -4.3100 H   0  0  0  0  0  0  0  0  0  0  0  0
   -3.7386    2.2447   -2.5242 H   0  0  0  0  0  0  0  0  0  0  0  0
   -2.3786    1.6301   -0.5657 H   0  0  0  0  0  0  0  0  0  0  0  0
   -2.0296   -2.3503   -2.0569 H   0  0  0  0  0  0  0  0  0  0  0  0
   -3.3966   -1.7380   -4.0113 H   0  0  0  0  0  0  0  0  0  0  0  0
    0.8253   -0.3244    0.1367 H   0  0  0  0  0  0  0  0  0  0  0  0
   -0.1572    0.9634   -0.6164 H   0  0  0  0  0  0  0  0  0  0  0  0
   -0.8285    1.8303    1.4477 H   0  0  0  0  0  0  0  0  0  0  0  0
    0.6680    1.0339    2.0275 H   0  0  0  0  0  0  0  0  0  0  0  0
   -1.6868    0.3745    3.1632 H   0  0  0  0  0  0  0  0  0  0  0  0
   -0.5274   -0.9317    2.7503 H   0  0  0  0  0  0  0  0  0  0  0  0
   -2.9650    0.0275    1.1521 H   0  0  0  0  0  0  0  0  0  0  0  0
   -2.5157   -1.6505    1.5860 H   0  0  0  0  0  0  0  0  0  0  0  0
   -4.1371    6.4568   -5.3418 H   0  0  0  0  0  0  0  0  0  0  0  0
   -3.4115    5.7694   -3.8689 H   0  0  0  0  0  0  0  0  0  0  0  0
   -2.4026    6.6859   -5.0137 H   0  0  0  0  0  0  0  0  0  0  0  0
   -1.5347    3.7861   -9.5763 H   0  0  0  0  0  0  0  0  0  0  0  0
   -0.2045    4.4366   -8.5885 H   0  0  0  0  0  0  0  0  0  0  0  0
   -0.4055    2.6766   -8.7624 H   0  0  0  0  0  0  0  0  0  0  0  0
   -0.0004   -2.4934   -1.2037 O   0  5  0  0  0  0  0  0  0  0  0  0
   -2.3213    1.1257   -7.4222 N   0  3  0  0  0  0  0  0  0  0  0  0
   -1.7900    0.7892   -8.2339 H   0  0  0  0  0  0  0  0  0  0  0  0
  1  2  1  0  0  0  0
  1 27  1  0  0  0  0
  1 28  1  0  0  0  0
  1 29  1  0  0  0  0
  2  3  1  0  0  0  0
  2 30  1  0  0  0  0
  2 31  1  0  0  0  0
  3 10  1  0  0  0  0
  3 54  2  0  0  0  0
  4  9  2  0  0  0  0
  4  5  1  0  0  0  0
  4 54  1  0  0  0  0
  5  6  2  0  0  0  0
  5 26  1  0  0  0  0
  6  7  1  0  0  0  0
  6 32  1  0  0  0  0
  7  8  2  0  0  0  0
  7 25  1  0  0  0  0
  8  9  1  0  0  0  0
  9 10  1  0  0  0  0
 10 11  1  0  0  0  0
 11 12  1  0  0  0  0
 11 33  1  0  0  0  0
 11 34  1  0  0  0  0
 12 17  2  0  0  0  0
 12 13  1  0  0  0  0
 13 14  2  0  0  0  0
 13 35  1  0  0  0  0
 14 15  1  0  0  0  0
 14 36  1  0  0  0  0
 15 16  2  0  0  0  0
 15 18  1  0  0  0  0
 16 17  1  0  0  0  0
 16 37  1  0  0  0  0
 17 38  1  0  0  0  0
 18 22  1  0  0  0  0
 18 19  1  0  0  0  0
 18 23  1  0  0  0  0
 19 20  1  0  0  0  0
 19 39  1  0  0  0  0
 19 40  1  0  0  0  0
 20 21  1  0  0  0  0
 20 41  1  0  0  0  0
 20 42  1  0  0  0  0
 21 22  1  0  0  0  0
 21 43  1  0  0  0  0
 21 44  1  0  0  0  0
 22 45  1  0  0  0  0
 22 46  1  0  0  0  0
 23 24  2  0  0  0  0
 23 53  1  0  0  0  0
 25 47  1  0  0  0  0
 25 48  1  0  0  0  0
 25 49  1  0  0  0  0
 26 50  1  0  0  0  0
 26 51  1  0  0  0  0
 26 52  1  0  0  0  0
 54 55  1  0  0  0  0
M  CHG  2  53  -1  54   1
M  END
$$$$
ZINC03808474
  -OEChem-08230709463D

 55 58  0     0  0  0  0  0  0999 V2000
    0.4557    8.2041    4.6885 C   0  0  0  0  0  0  0  0  0  0  0  0
   -0.2023    7.0274    3.9653 C   0  0  0  0  0  0  0  0  0  0  0  0
    0.4607    6.8325    2.6002 C   0  0  0  0  0  0  0  0  0  0  0  0
   -0.1322    5.6246    1.9216 C   0  0  0  0  0  0  0  0  0  0  0  0
   -1.1897    5.6394    1.1637 N   0  0  0  0  0  0  0  0  0  0  0  0
   -1.4447    4.3837    0.7177 C   0  0  0  0  0  0  0  0  0  0  0  0
   -2.4286    3.8292   -0.1068 C   0  0  0  0  0  0  0  0  0  0  0  0
   -2.3805    2.4712   -0.3567 C   0  0  0  0  0  0  0  0  0  0  0  0
   -1.3720    1.7070    0.2094 C   0  0  0  0  0  0  0  0  0  0  0  0
   -0.4541    2.2485    0.9831 N   0  0  0  0  0  0  0  0  0  0  0  0
   -0.4534    3.5437    1.2554 C   0  0  0  0  0  0  0  0  0  0  0  0
    0.3638    4.3600    2.0074 N   0  0  0  0  0  0  0  0  0  0  0  0
    1.5472    3.9425    2.7633 C   0  0  0  0  0  0  0  0  0  0  0  0
    2.7449    3.9190    1.8489 C   0  0  0  0  0  0  0  0  0  0  0  0
    3.0311    2.7838    1.1138 C   0  0  0  0  0  0  0  0  0  0  0  0
    4.1275    2.7637    0.2721 C   0  0  0  0  0  0  0  0  0  0  0  0
    4.9423    3.8758    0.1717 C   0  0  0  0  0  0  0  0  0  0  0  0
    4.6590    5.0092    0.9108 C   0  0  0  0  0  0  0  0  0  0  0  0
    3.5605    5.0307    1.7496 C   0  0  0  0  0  0  0  0  0  0  0  0
    6.1396    3.8526   -0.7431 C   0  0  0  0  0  0  0  0  0  0  0  0
    5.7728    3.2577   -2.1225 C   0  0  0  0  0  0  0  0  0  0  0  0
    6.9855    2.4529   -2.5285 C   0  0  0  0  0  0  0  0  0  0  0  0
    7.7631    2.2259   -1.5050 C   0  0  0  0  0  0  0  0  0  0  0  0
    7.1986    2.8414   -0.2457 C   0  0  0  0  0  0  0  0  0  0  0  0
    6.7331    5.2302   -0.8876 C   0  0  0  0  0  0  0  0  0  0  0  0
    7.8809    5.4302   -0.5676 O   0  0  0  0  0  0  0  0  0  0  0  0
   -1.3246    0.2263   -0.0666 C   0  0  0  0  0  0  0  0  0  0  0  0
   -3.5117    4.6889   -0.7059 C   0  0  0  0  0  0  0  0  0  0  0  0
    1.5172    7.9983    4.8262 H   0  0  0  0  0  0  0  0  0  0  0  0
    0.3353    9.1095    4.0936 H   0  0  0  0  0  0  0  0  0  0  0  0
   -0.0167    8.3429    5.6610 H   0  0  0  0  0  0  0  0  0  0  0  0
   -0.0820    6.1220    4.5602 H   0  0  0  0  0  0  0  0  0  0  0  0
   -1.2638    7.2332    3.8276 H   0  0  0  0  0  0  0  0  0  0  0  0
    0.2903    7.7155    1.9842 H   0  0  0  0  0  0  0  0  0  0  0  0
    1.5322    6.6844    2.7345 H   0  0  0  0  0  0  0  0  0  0  0  0
   -3.1236    2.0081   -0.9890 H   0  0  0  0  0  0  0  0  0  0  0  0
    1.7251    4.6454    3.5771 H   0  0  0  0  0  0  0  0  0  0  0  0
    1.3835    2.9458    3.1733 H   0  0  0  0  0  0  0  0  0  0  0  0
    2.3964    1.9137    1.1948 H   0  0  0  0  0  0  0  0  0  0  0  0
    4.3490    1.8781   -0.3050 H   0  0  0  0  0  0  0  0  0  0  0  0
    5.2958    5.8779    0.8326 H   0  0  0  0  0  0  0  0  0  0  0  0
    3.3392    5.9161    2.3270 H   0  0  0  0  0  0  0  0  0  0  0  0
    4.8993    2.6114   -2.0372 H   0  0  0  0  0  0  0  0  0  0  0  0
    5.5876    4.0548   -2.8426 H   0  0  0  0  0  0  0  0  0  0  0  0
    7.1832    2.1108   -3.5336 H   0  0  0  0  0  0  0  0  0  0  0  0
    8.6882    1.6706   -1.5519 H   0  0  0  0  0  0  0  0  0  0  0  0
    7.9827    3.3553    0.3102 H   0  0  0  0  0  0  0  0  0  0  0  0
    6.7317    2.0775    0.3760 H   0  0  0  0  0  0  0  0  0  0  0  0
   -0.7212    0.0415   -0.9554 H   0  0  0  0  0  0  0  0  0  0  0  0
   -0.8822   -0.2883    0.7863 H   0  0  0  0  0  0  0  0  0  0  0  0
   -2.3361   -0.1453   -0.2305 H   0  0  0  0  0  0  0  0  0  0  0  0
   -3.1810    5.0688   -1.6726 H   0  0  0  0  0  0  0  0  0  0  0  0
   -4.4155    4.0944   -0.8390 H   0  0  0  0  0  0  0  0  0  0  0  0
   -3.7218    5.5254   -0.0394 H   0  0  0  0  0  0  0  0  0  0  0  0
    5.9865    6.2352   -1.3717 O   0  5  0  0  0  0  0  0  0  0  0  0
  1  2  1  0  0  0  0
  1 29  1  0  0  0  0
  1 30  1  0  0  0  0
  1 31  1  0  0  0  0
  2  3  1  0  0  0  0
  2 32  1  0  0  0  0
  2 33  1  0  0  0  0
  3  4  1  0  0  0  0
  3 34  1  0  0  0  0
  3 35  1  0  0  0  0
  4 12  1  0  0  0  0
  4  5  2  0  0  0  0
  5  6  1  0  0  0  0
  6 11  2  0  0  0  0
  6  7  1  0  0  0  0
  7  8  2  0  0  0  0
  7 28  1  0  0  0  0
  8  9  1  0  0  0  0
  8 36  1  0  0  0  0
  9 10  2  0  0  0  0
  9 27  1  0  0  0  0
 10 11  1  0  0  0  0
 11 12  1  0  0  0  0
 12 13  1  0  0  0  0
 13 14  1  0  0  0  0
 13 37  1  0  0  0  0
 13 38  1  0  0  0  0
 14 19  2  0  0  0  0
 14 15  1  0  0  0  0
 15 16  2  0  0  0  0
 15 39  1  0  0  0  0
 16 17  1  0  0  0  0
 16 40  1  0  0  0  0
 17 18  2  0  0  0  0
 17 20  1  0  0  0  0
 18 19  1  0  0  0  0
 18 41  1  0  0  0  0
 19 42  1  0  0  0  0
 20 24  1  0  0  0  0
 20 21  1  0  0  0  0
 20 25  1  0  0  0  0
 21 22  1  0  0  0  0
 21 43  1  0  0  0  0
 21 44  1  0  0  0  0
 22 23  2  0  0  0  0
 22 45  1  0  0  0  0
 23 24  1  0  0  0  0
 23 46  1  0  0  0  0
 24 47  1  0  0  0  0
 24 48  1  0  0  0  0
 25 26  2  0  0  0  0
 25 55  1  0  0  0  0
 27 49  1  0  0  0  0
 27 50  1  0  0  0  0
 27 51  1  0  0  0  0
 28 52  1  0  0  0  0
 28 53  1  0  0  0  0
 28 54  1  0  0  0  0
M  CHG  1  55  -1
M  END
$$$$
ZINC03808474
  -OEChem-08230709463D

 56 59  0     0  0  0  0  0  0999 V2000
    0.4557    8.2041    4.6885 C   0  0  0  0  0  0  0  0  0  0  0  0
   -0.2023    7.0274    3.9653 C   0  0  0  0  0  0  0  0  0  0  0  0
    0.4607    6.8325    2.6002 C   0  0  0  0  0  0  0  0  0  0  0  0
   -0.1322    5.6246    1.9216 C   0  0  0  0  0  0  0  0  0  0  0  0
   -1.4447    4.3837    0.7177 C   0  0  0  0  0  0  0  0  0  0  0  0
   -2.4286    3.8292   -0.1068 C   0  0  0  0  0  0  0  0  0  0  0  0
   -2.3805    2.4712   -0.3567 C   0  0  0  0  0  0  0  0  0  0  0  0
   -1.3720    1.7070    0.2094 C   0  0  0  0  0  0  0  0  0  0  0  0
   -0.4541    2.2485    0.9831 N   0  0  0  0  0  0  0  0  0  0  0  0
   -0.4534    3.5437    1.2554 C   0  0  0  0  0  0  0  0  0  0  0  0
    0.3638    4.3600    2.0074 N   0  0  0  0  0  0  0  0  0  0  0  0
    1.5472    3.9425    2.7633 C   0  0  0  0  0  0  0  0  0  0  0  0
    2.7449    3.9190    1.8489 C   0  0  0  0  0  0  0  0  0  0  0  0
    3.0311    2.7838    1.1138 C   0  0  0  0  0  0  0  0  0  0  0  0
    4.1275    2.7637    0.2721 C   0  0  0  0  0  0  0  0  0  0  0  0
    4.9423    3.8758    0.1717 C   0  0  0  0  0  0  0  0  0  0  0  0
    4.6590    5.0092    0.9108 C   0  0  0  0  0  0  0  0  0  0  0  0
    3.5605    5.0307    1.7496 C   0  0  0  0  0  0  0  0  0  0  0  0
    6.1396    3.8526   -0.7431 C   0  0  0  0  0  0  0  0  0  0  0  0
    5.7728    3.2577   -2.1225 C   0  0  0  0  0  0  0  0  0  0  0  0
    6.9855    2.4529   -2.5285 C   0  0  0  0  0  0  0  0  0  0  0  0
    7.7631    2.2259   -1.5050 C   0  0  0  0  0  0  0  0  0  0  0  0
    7.1986    2.8414   -0.2457 C   0  0  0  0  0  0  0  0  0  0  0  0
    6.7331    5.2302   -0.8876 C   0  0  0  0  0  0  0  0  0  0  0  0
    7.8809    5.4302   -0.5676 O   0  0  0  0  0  0  0  0  0  0  0  0
   -1.3246    0.2263   -0.0666 C   0  0  0  0  0  0  0  0  0  0  0  0
   -3.5117    4.6889   -0.7059 C   0  0  0  0  0  0  0  0  0  0  0  0
    1.5172    7.9983    4.8262 H   0  0  0  0  0  0  0  0  0  0  0  0
    0.3353    9.1095    4.0936 H   0  0  0  0  0  0  0  0  0  0  0  0
   -0.0167    8.3429    5.6610 H   0  0  0  0  0  0  0  0  0  0  0  0
   -0.0820    6.1220    4.5602 H   0  0  0  0  0  0  0  0  0  0  0  0
   -1.2638    7.2332    3.8276 H   0  0  0  0  0  0  0  0  0  0  0  0
    0.2903    7.7155    1.9842 H   0  0  0  0  0  0  0  0  0  0  0  0
    1.5322    6.6844    2.7345 H   0  0  0  0  0  0  0  0  0  0  0  0
   -3.1236    2.0081   -0.9890 H   0  0  0  0  0  0  0  0  0  0  0  0
    1.7251    4.6454    3.5771 H   0  0  0  0  0  0  0  0  0  0  0  0
    1.3835    2.9458    3.1733 H   0  0  0  0  0  0  0  0  0  0  0  0
    2.3964    1.9137    1.1948 H   0  0  0  0  0  0  0  0  0  0  0  0
    4.3490    1.8781   -0.3050 H   0  0  0  0  0  0  0  0  0  0  0  0
    5.2958    5.8779    0.8326 H   0  0  0  0  0  0  0  0  0  0  0  0
    3.3392    5.9161    2.3270 H   0  0  0  0  0  0  0  0  0  0  0  0
    4.8993    2.6114   -2.0372 H   0  0  0  0  0  0  0  0  0  0  0  0
    5.5876    4.0548   -2.8426 H   0  0  0  0  0  0  0  0  0  0  0  0
    7.1832    2.1108   -3.5336 H   0  0  0  0  0  0  0  0  0  0  0  0
    8.6882    1.6706   -1.5519 H   0  0  0  0  0  0  0  0  0  0  0  0
    7.9827    3.3553    0.3102 H   0  0  0  0  0  0  0  0  0  0  0  0
    6.7317    2.0775    0.3760 H   0  0  0  0  0  0  0  0  0  0  0  0
   -0.7212    0.0415   -0.9554 H   0  0  0  0  0  0  0  0  0  0  0  0
   -0.8822   -0.2883    0.7863 H   0  0  0  0  0  0  0  0  0  0  0  0
   -2.3361   -0.1453   -0.2305 H   0  0  0  0  0  0  0  0  0  0  0  0
   -3.1810    5.0688   -1.6726 H   0  0  0  0  0  0  0  0  0  0  0  0
   -4.4155    4.0944   -0.8390 H   0  0  0  0  0  0  0  0  0  0  0  0
   -3.7218    5.5254   -0.0394 H   0  0  0  0  0  0  0  0  0  0  0  0
    5.9865    6.2352   -1.3717 O   0  5  0  0  0  0  0  0  0  0  0  0
   -1.1898    5.6395    1.1637 N   0  3  0  0  0  0  0  0  0  0  0  0
   -1.7455    6.4729    0.9380 H   0  0  0  0  0  0  0  0  0  0  0  0
  1  2  1  0  0  0  0
  1 28  1  0  0  0  0
  1 29  1  0  0  0  0
  1 30  1  0  0  0  0
  2  3  1  0  0  0  0
  2 31  1  0  0  0  0
  2 32  1  0  0  0  0
  3  4  1  0  0  0  0
  3 33  1  0  0  0  0
  3 34  1  0  0  0  0
  4 11  1  0  0  0  0
  4 55  2  0  0  0  0
  5 10  2  0  0  0  0
  5  6  1  0  0  0  0
  5 55  1  0  0  0  0
  6  7  2  0  0  0  0
  6 27  1  0  0  0  0
  7  8  1  0  0  0  0
  7 35  1  0  0  0  0
  8  9  2  0  0  0  0
  8 26  1  0  0  0  0
  9 10  1  0  0  0  0
 10 11  1  0  0  0  0
 11 12  1  0  0  0  0
 12 13  1  0  0  0  0
 12 36  1  0  0  0  0
 12 37  1  0  0  0  0
 13 18  2  0  0  0  0
 13 14  1  0  0  0  0
 14 15  2  0  0  0  0
 14 38  1  0  0  0  0
 15 16  1  0  0  0  0
 15 39  1  0  0  0  0
 16 17  2  0  0  0  0
 16 19  1  0  0  0  0
 17 18  1  0  0  0  0
 17 40  1  0  0  0  0
 18 41  1  0  0  0  0
 19 23  1  0  0  0  0
 19 20  1  0  0  0  0
 19 24  1  0  0  0  0
 20 21  1  0  0  0  0
 20 42  1  0  0  0  0
 20 43  1  0  0  0  0
 21 22  2  0  0  0  0
 21 44  1  0  0  0  0
 22 23  1  0  0  0  0
 22 45  1  0  0  0  0
 23 46  1  0  0  0  0
 23 47  1  0  0  0  0
 24 25  2  0  0  0  0
 24 54  1  0  0  0  0
 26 48  1  0  0  0  0
 26 49  1  0  0  0  0
 26 50  1  0  0  0  0
 27 51  1  0  0  0  0
 27 52  1  0  0  0  0
 27 53  1  0  0  0  0
 55 56  1  0  0  0  0
M  CHG  2  54  -1  55   1
M  END
$$$$
ZINC03808475
  -OEChem-08230709463D

 53 57  0     0  0  0  0  0  0999 V2000
   -5.0920   -2.2302   -0.4297 C   0  0  0  0  0  0  0  0  0  0  0  0
   -4.7182   -1.5844   -1.7389 C   0  0  0  0  0  0  0  0  0  0  0  0
   -5.3377   -1.9568   -2.9170 C   0  0  0  0  0  0  0  0  0  0  0  0
   -4.9723   -1.3439   -4.1049 C   0  0  0  0  0  0  0  0  0  0  0  0
   -4.0437   -0.4104   -4.1372 N   0  0  0  0  0  0  0  0  0  0  0  0
   -3.4190   -0.0161   -3.0393 C   0  0  0  0  0  0  0  0  0  0  0  0
   -3.7355   -0.5917   -1.7955 C   0  0  0  0  0  0  0  0  0  0  0  0
   -2.9410   -0.0009   -0.8680 N   0  0  0  0  0  0  0  0  0  0  0  0
   -2.1823    0.8839   -1.4462 C   0  0  0  0  0  0  0  0  0  0  0  0
   -2.4336    0.9130   -2.7836 N   0  0  0  0  0  0  0  0  0  0  0  0
   -1.7770    1.7740   -3.7704 C   0  0  0  0  0  0  0  0  0  0  0  0
   -0.5595    1.0739   -4.3169 C   0  0  0  0  0  0  0  0  0  0  0  0
    0.6679    1.2420   -3.7036 C   0  0  0  0  0  0  0  0  0  0  0  0
    1.7840    0.5968   -4.2025 C   0  0  0  0  0  0  0  0  0  0  0  0
    1.6742   -0.2100   -5.3196 C   0  0  0  0  0  0  0  0  0  0  0  0
    0.4478   -0.3739   -5.9360 C   0  0  0  0  0  0  0  0  0  0  0  0
   -0.6690    0.2682   -5.4348 C   0  0  0  0  0  0  0  0  0  0  0  0
    2.8916   -0.9105   -5.8657 C   0  0  0  0  0  0  0  0  0  0  0  0
    3.6989   -1.5853   -4.7325 C   0  0  0  0  0  0  0  0  0  0  0  0
    5.1454   -1.3948   -5.1253 C   0  0  0  0  0  0  0  0  0  0  0  0
    5.2663   -0.4715   -6.0400 C   0  0  0  0  0  0  0  0  0  0  0  0
    3.9206    0.1076   -6.4097 C   0  0  0  0  0  0  0  0  0  0  0  0
    2.5069   -1.9099   -6.9261 C   0  0  0  0  0  0  0  0  0  0  0  0
    2.9503   -1.8043   -8.0451 O   0  0  0  0  0  0  0  0  0  0  0  0
   -1.1686    1.7462   -0.7392 C   0  0  0  0  0  0  0  0  0  0  0  0
   -0.0390    1.0377    0.0111 C   0  0  0  0  0  0  0  0  0  0  0  0
   -1.1633    1.7218    0.7913 C   0  0  0  0  0  0  0  0  0  0  0  0
   -5.6509   -1.7545   -5.3863 C   0  0  0  0  0  0  0  0  0  0  0  0
   -4.4641   -3.1057   -0.2641 H   0  0  0  0  0  0  0  0  0  0  0  0
   -4.9438   -1.5181    0.3821 H   0  0  0  0  0  0  0  0  0  0  0  0
   -6.1383   -2.5340   -0.4600 H   0  0  0  0  0  0  0  0  0  0  0  0
   -6.1013   -2.7205   -2.9117 H   0  0  0  0  0  0  0  0  0  0  0  0
   -2.4696    1.9872   -4.5847 H   0  0  0  0  0  0  0  0  0  0  0  0
   -1.4766    2.7077   -3.2952 H   0  0  0  0  0  0  0  0  0  0  0  0
    0.7543    1.8750   -2.8328 H   0  0  0  0  0  0  0  0  0  0  0  0
    2.7422    0.7251   -3.7211 H   0  0  0  0  0  0  0  0  0  0  0  0
    0.3621   -1.0040   -6.8090 H   0  0  0  0  0  0  0  0  0  0  0  0
   -1.6272    0.1402   -5.9164 H   0  0  0  0  0  0  0  0  0  0  0  0
    3.4967   -1.0967   -3.7794 H   0  0  0  0  0  0  0  0  0  0  0  0
    3.4577   -2.6468   -4.6747 H   0  0  0  0  0  0  0  0  0  0  0  0
    5.9709   -1.9499   -4.7048 H   0  0  0  0  0  0  0  0  0  0  0  0
    6.2050   -0.1619   -6.4752 H   0  0  0  0  0  0  0  0  0  0  0  0
    3.8302    0.1973   -7.4923 H   0  0  0  0  0  0  0  0  0  0  0  0
    3.7803    1.0792   -5.9360 H   0  0  0  0  0  0  0  0  0  0  0  0
   -0.9327    2.6914   -1.2282 H   0  0  0  0  0  0  0  0  0  0  0  0
   -0.0293   -0.0521   -0.0063 H   0  0  0  0  0  0  0  0  0  0  0  0
    0.9402    1.5166    0.0154 H   0  0  0  0  0  0  0  0  0  0  0  0
   -1.8933    1.0821    1.2873 H   0  0  0  0  0  0  0  0  0  0  0  0
   -0.9239    2.6509    1.3086 H   0  0  0  0  0  0  0  0  0  0  0  0
   -5.0963   -2.5730   -5.8451 H   0  0  0  0  0  0  0  0  0  0  0  0
   -6.6681   -2.0810   -5.1702 H   0  0  0  0  0  0  0  0  0  0  0  0
   -5.6791   -0.9063   -6.0703 H   0  0  0  0  0  0  0  0  0  0  0  0
    1.6716   -2.9172   -6.6274 O   0  5  0  0  0  0  0  0  0  0  0  0
  1  2  1  0  0  0  0
  1 29  1  0  0  0  0
  1 30  1  0  0  0  0
  1 31  1  0  0  0  0
  2  7  2  0  0  0  0
  2  3  1  0  0  0  0
  3  4  2  0  0  0  0
  3 32  1  0  0  0  0
  4  5  1  0  0  0  0
  4 28  1  0  0  0  0
  5  6  2  0  0  0  0
  6 10  1  0  0  0  0
  6  7  1  0  0  0  0
  7  8  1  0  0  0  0
  8  9  2  0  0  0  0
  9 10  1  0  0  0  0
  9 25  1  0  0  0  0
 10 11  1  0  0  0  0
 11 12  1  0  0  0  0
 11 33  1  0  0  0  0
 11 34  1  0  0  0  0
 12 17  2  0  0  0  0
 12 13  1  0  0  0  0
 13 14  2  0  0  0  0
 13 35  1  0  0  0  0
 14 15  1  0  0  0  0
 14 36  1  0  0  0  0
 15 16  2  0  0  0  0
 15 18  1  0  0  0  0
 16 17  1  0  0  0  0
 16 37  1  0  0  0  0
 17 38  1  0  0  0  0
 18 22  1  0  0  0  0
 18 19  1  0  0  0  0
 18 23  1  0  0  0  0
 19 20  1  0  0  0  0
 19 39  1  0  0  0  0
 19 40  1  0  0  0  0
 20 21  2  0  0  0  0
 20 41  1  0  0  0  0
 21 22  1  0  0  0  0
 21 42  1  0  0  0  0
 22 43  1  0  0  0  0
 22 44  1  0  0  0  0
 23 24  2  0  0  0  0
 23 53  1  0  0  0  0
 25 27  1  0  0  0  0
 25 26  1  0  0  0  0
 25 45  1  0  0  0  0
 26 27  1  0  0  0  0
 26 46  1  0  0  0  0
 26 47  1  0  0  0  0
 27 48  1  0  0  0  0
 27 49  1  0  0  0  0
 28 50  1  0  0  0  0
 28 51  1  0  0  0  0
 28 52  1  0  0  0  0
M  CHG  1  53  -1
M  END
$$$$
ZINC03809022
  -OEChem-08230709463D

 51 52  0     0  0  0  0  0  0999 V2000
   -3.1114    3.2326    5.3901 C   0  0  0  0  0  0  0  0  0  0  0  0
   -2.5077    2.8118    4.0750 C   0  0  0  0  0  0  0  0  0  0  0  0
   -1.1467    2.5984    3.9771 C   0  0  0  0  0  0  0  0  0  0  0  0
   -0.5904    2.2111    2.7647 C   0  0  0  0  0  0  0  0  0  0  0  0
   -1.4041    2.0388    1.6517 C   0  0  0  0  0  0  0  0  0  0  0  0
   -2.7636    2.2582    1.7505 C   0  0  0  0  0  0  0  0  0  0  0  0
   -3.3189    2.6395    2.9634 C   0  0  0  0  0  0  0  0  0  0  0  0
   -4.6590    2.8503    3.0608 O   0  0  0  0  0  0  0  0  0  0  0  0
   -3.6455    2.0778    0.5419 C   0  0  0  0  0  0  0  0  0  0  0  0
   -0.8020    1.6185    0.3357 C   0  0  0  0  0  0  0  0  0  0  0  0
    1.1457    1.9379    2.6384 S   0  0  0  0  0  0  0  0  0  0  0  0
    1.7663    2.2797    4.3083 C   0  0  0  0  0  0  0  0  0  0  0  0
    3.2826    2.0776    4.3402 C   0  0  0  0  0  0  0  0  0  0  0  0
    3.7982    2.3616    5.7275 C   0  0  0  0  0  0  0  0  0  0  0  0
    4.1992    3.6407    6.0663 C   0  0  0  0  0  0  0  0  0  0  0  0
    4.6668    3.9048    7.3391 C   0  0  0  0  0  0  0  0  0  0  0  0
    4.7447    2.8828    8.2742 C   0  0  0  0  0  0  0  0  0  0  0  0
    4.3470    1.5991    7.9299 C   0  0  0  0  0  0  0  0  0  0  0  0
    3.8748    1.3413    6.6576 C   0  0  0  0  0  0  0  0  0  0  0  0
    5.2092    3.1390    9.5253 O   0  0  0  0  0  0  0  0  0  0  0  0
    5.7171    4.4516    9.7727 C   0  0  0  0  0  0  0  0  0  0  0  0
    6.2268    4.5383   11.2127 C   0  0  0  0  0  0  0  0  0  0  0  0
    6.8666    4.7442    8.8063 C   0  0  0  0  0  0  0  0  0  0  0  0
    4.6184    5.4624    9.5670 C   0  0  0  0  0  0  0  0  0  0  0  0
    3.5138    5.0962    9.2420 O   0  0  0  0  0  0  0  0  0  0  0  0
   -3.1205    4.3206    5.4542 H   0  0  0  0  0  0  0  0  0  0  0  0
   -4.1321    2.8561    5.4584 H   0  0  0  0  0  0  0  0  0  0  0  0
   -2.5184    2.8253    6.2090 H   0  0  0  0  0  0  0  0  0  0  0  0
   -0.5152    2.7323    4.8429 H   0  0  0  0  0  0  0  0  0  0  0  0
   -4.9288    3.7595    2.8717 H   0  0  0  0  0  0  0  0  0  0  0  0
   -3.9991    1.0476    0.5006 H   0  0  0  0  0  0  0  0  0  0  0  0
   -4.4988    2.7524    0.6108 H   0  0  0  0  0  0  0  0  0  0  0  0
   -3.0763    2.3030   -0.3600 H   0  0  0  0  0  0  0  0  0  0  0  0
   -0.7935    0.5304    0.2710 H   0  0  0  0  0  0  0  0  0  0  0  0
    0.2187    1.9946    0.2664 H   0  0  0  0  0  0  0  0  0  0  0  0
   -1.3959    2.0264   -0.4823 H   0  0  0  0  0  0  0  0  0  0  0  0
    1.5312    3.3089    4.5797 H   0  0  0  0  0  0  0  0  0  0  0  0
    1.2942    1.6000    5.0176 H   0  0  0  0  0  0  0  0  0  0  0  0
    3.5177    1.0484    4.0688 H   0  0  0  0  0  0  0  0  0  0  0  0
    3.7547    2.7573    3.6309 H   0  0  0  0  0  0  0  0  0  0  0  0
    4.1425    4.4349    5.3367 H   0  0  0  0  0  0  0  0  0  0  0  0
    4.9758    4.9050    7.6047 H   0  0  0  0  0  0  0  0  0  0  0  0
    4.4070    0.8018    8.6560 H   0  0  0  0  0  0  0  0  0  0  0  0
    3.5648    0.3422    6.3892 H   0  0  0  0  0  0  0  0  0  0  0  0
    7.0777    3.8687   11.3378 H   0  0  0  0  0  0  0  0  0  0  0  0
    6.5348    5.5614   11.4281 H   0  0  0  0  0  0  0  0  0  0  0  0
    5.4310    4.2464   11.8980 H   0  0  0  0  0  0  0  0  0  0  0  0
    6.5391    4.5547    7.7841 H   0  0  0  0  0  0  0  0  0  0  0  0
    7.1669    5.7874    8.9041 H   0  0  0  0  0  0  0  0  0  0  0  0
    7.7128    4.0988    9.0422 H   0  0  0  0  0  0  0  0  0  0  0  0
    4.8669    6.7694    9.7449 O   0  5  0  0  0  0  0  0  0  0  0  0
  1  2  1  0  0  0  0
  1 26  1  0  0  0  0
  1 27  1  0  0  0  0
  1 28  1  0  0  0  0
  2  7  2  0  0  0  0
  2  3  1  0  0  0  0
  3  4  2  0  0  0  0
  3 29  1  0  0  0  0
  4  5  1  0  0  0  0
  4 11  1  0  0  0  0
  5  6  2  0  0  0  0
  5 10  1  0  0  0  0
  6  7  1  0  0  0  0
  6  9  1  0  0  0  0
  7  8  1  0  0  0  0
  8 30  1  0  0  0  0
  9 31  1  0  0  0  0
  9 32  1  0  0  0  0
  9 33  1  0  0  0  0
 10 34  1  0  0  0  0
 10 35  1  0  0  0  0
 10 36  1  0  0  0  0
 11 12  1  0  0  0  0
 12 13  1  0  0  0  0
 12 37  1  0  0  0  0
 12 38  1  0  0  0  0
 13 14  1  0  0  0  0
 13 39  1  0  0  0  0
 13 40  1  0  0  0  0
 14 19  2  0  0  0  0
 14 15  1  0  0  0  0
 15 16  2  0  0  0  0
 15 41  1  0  0  0  0
 16 17  1  0  0  0  0
 16 42  1  0  0  0  0
 17 18  2  0  0  0  0
 17 20  1  0  0  0  0
 18 19  1  0  0  0  0
 18 43  1  0  0  0  0
 19 44  1  0  0  0  0
 20 21  1  0  0  0  0
 21 22  1  0  0  0  0
 21 23  1  0  0  0  0
 21 24  1  0  0  0  0
 22 45  1  0  0  0  0
 22 46  1  0  0  0  0
 22 47  1  0  0  0  0
 23 48  1  0  0  0  0
 23 49  1  0  0  0  0
 23 50  1  0  0  0  0
 24 25  2  0  0  0  0
 24 51  1  0  0  0  0
M  CHG  1  51  -1
M  END
$$$$
ZINC03809311
  -OEChem-08230709463D

 54 57  0     1  0  0  0  0  0999 V2000
  -11.0493    2.5620   -2.4398 C   0  0  0  0  0  0  0  0  0  0  0  0
   -9.7336    1.9725   -2.8784 C   0  0  0  0  0  0  0  0  0  0  0  0
   -9.6558    0.6703   -3.3350 C   0  0  0  0  0  0  0  0  0  0  0  0
   -8.4311    0.1567   -3.7308 C   0  0  0  0  0  0  0  0  0  0  0  0
   -7.3344    0.8845   -3.6816 N   0  0  0  0  0  0  0  0  0  0  0  0
   -7.3531    2.1382   -3.2586 C   0  0  0  0  0  0  0  0  0  0  0  0
   -8.5578    2.7274   -2.8343 C   0  0  0  0  0  0  0  0  0  0  0  0
   -8.2695    3.9977   -2.4547 N   0  0  0  0  0  0  0  0  0  0  0  0
   -6.9968    4.2189   -2.6094 C   0  0  0  0  0  0  0  0  0  0  0  0
   -6.3847    3.1057   -3.0983 N   0  0  0  0  0  0  0  0  0  0  0  0
   -4.9590    2.9639   -3.4040 C   0  0  0  0  0  0  0  0  0  0  0  0
   -4.2306    2.4647   -2.1828 C   0  0  0  0  0  0  0  0  0  0  0  0
   -4.0838    1.1063   -1.9728 C   0  0  0  0  0  0  0  0  0  0  0  0
   -3.4149    0.6484   -0.8531 C   0  0  0  0  0  0  0  0  0  0  0  0
   -2.8931    1.5489    0.0568 C   0  0  0  0  0  0  0  0  0  0  0  0
   -3.0448    2.9072   -0.1504 C   0  0  0  0  0  0  0  0  0  0  0  0
   -3.7088    3.3652   -1.2730 C   0  0  0  0  0  0  0  0  0  0  0  0
   -2.1642    1.0497    1.2777 C   0  0  1  0  0  0  0  0  0  0  0  0
   -2.1494   -0.0402    1.2717 H   0  0  0  0  0  0  0  0  0  0  0  0
   -0.7288    1.5792    1.2668 C   0  0  0  0  0  0  0  0  0  0  0  0
   -0.0127    1.0858    0.0080 C   0  0  0  0  0  0  0  0  0  0  0  0
    0.0111    1.0724    2.5063 C   0  0  0  0  0  0  0  0  0  0  0  0
   -2.8696    1.5357    2.5176 C   0  0  0  0  0  0  0  0  0  0  0  0
   -2.2843    2.2339    3.3111 O   0  0  0  0  0  0  0  0  0  0  0  0
   -6.3017    5.5183   -2.2942 C   0  0  0  0  0  0  0  0  0  0  0  0
   -7.1093    6.5920   -1.5622 C   0  0  0  0  0  0  0  0  0  0  0  0
   -6.7671    6.7683   -3.0437 C   0  0  0  0  0  0  0  0  0  0  0  0
   -8.3524   -1.2637   -4.2282 C   0  0  0  0  0  0  0  0  0  0  0  0
  -11.5400    3.0304   -3.2931 H   0  0  0  0  0  0  0  0  0  0  0  0
  -11.6869    1.7722   -2.0425 H   0  0  0  0  0  0  0  0  0  0  0  0
  -10.8727    3.3098   -1.6667 H   0  0  0  0  0  0  0  0  0  0  0  0
  -10.5436    0.0572   -3.3833 H   0  0  0  0  0  0  0  0  0  0  0  0
   -4.5527    3.9314   -3.6992 H   0  0  0  0  0  0  0  0  0  0  0  0
   -4.8313    2.2521   -4.2196 H   0  0  0  0  0  0  0  0  0  0  0  0
   -4.4915    0.4028   -2.6836 H   0  0  0  0  0  0  0  0  0  0  0  0
   -3.3002   -0.4129   -0.6889 H   0  0  0  0  0  0  0  0  0  0  0  0
   -2.6410    3.6106    0.5627 H   0  0  0  0  0  0  0  0  0  0  0  0
   -3.8232    4.4265   -1.4373 H   0  0  0  0  0  0  0  0  0  0  0  0
   -0.7436    2.6691    1.2728 H   0  0  0  0  0  0  0  0  0  0  0  0
    0.0021   -0.0041    0.0020 H   0  0  0  0  0  0  0  0  0  0  0  0
    1.0099    1.4631    0.0003 H   0  0  0  0  0  0  0  0  0  0  0  0
   -0.5399    1.4469   -0.8751 H   0  0  0  0  0  0  0  0  0  0  0  0
    1.0337    1.4497    2.4986 H   0  0  0  0  0  0  0  0  0  0  0  0
   -0.4990    1.4239    3.4031 H   0  0  0  0  0  0  0  0  0  0  0  0
    0.0259   -0.0175    2.5003 H   0  0  0  0  0  0  0  0  0  0  0  0
   -5.2404    5.4387   -2.0586 H   0  0  0  0  0  0  0  0  0  0  0  0
   -8.1433    6.3585   -1.3086 H   0  0  0  0  0  0  0  0  0  0  0  0
   -6.5793    7.2190   -0.8452 H   0  0  0  0  0  0  0  0  0  0  0  0
   -6.0121    7.5113   -3.3008 H   0  0  0  0  0  0  0  0  0  0  0  0
   -7.5757    6.6508   -3.7651 H   0  0  0  0  0  0  0  0  0  0  0  0
   -8.5066   -1.2798   -5.3071 H   0  0  0  0  0  0  0  0  0  0  0  0
   -7.3709   -1.6764   -3.9951 H   0  0  0  0  0  0  0  0  0  0  0  0
   -9.1230   -1.8620   -3.7420 H   0  0  0  0  0  0  0  0  0  0  0  0
   -4.1481    1.1928    2.7403 O   0  5  0  0  0  0  0  0  0  0  0  0
  1  2  1  0  0  0  0
  1 29  1  0  0  0  0
  1 30  1  0  0  0  0
  1 31  1  0  0  0  0
  2  7  2  0  0  0  0
  2  3  1  0  0  0  0
  3  4  2  0  0  0  0
  3 32  1  0  0  0  0
  4  5  1  0  0  0  0
  4 28  1  0  0  0  0
  5  6  2  0  0  0  0
  6 10  1  0  0  0  0
  6  7  1  0  0  0  0
  7  8  1  0  0  0  0
  8  9  2  0  0  0  0
  9 10  1  0  0  0  0
  9 25  1  0  0  0  0
 10 11  1  0  0  0  0
 11 12  1  0  0  0  0
 11 33  1  0  0  0  0
 11 34  1  0  0  0  0
 12 17  2  0  0  0  0
 12 13  1  0  0  0  0
 13 14  2  0  0  0  0
 13 35  1  0  0  0  0
 14 15  1  0  0  0  0
 14 36  1  0  0  0  0
 15 16  2  0  0  0  0
 15 18  1  0  0  0  0
 16 17  1  0  0  0  0
 16 37  1  0  0  0  0
 17 38  1  0  0  0  0
 18 19  1  0  0  0  0
 18 20  1  0  0  0  0
 18 23  1  0  0  0  0
 20 21  1  0  0  0  0
 20 22  1  0  0  0  0
 20 39  1  0  0  0  0
 21 40  1  0  0  0  0
 21 41  1  0  0  0  0
 21 42  1  0  0  0  0
 22 43  1  0  0  0  0
 22 44  1  0  0  0  0
 22 45  1  0  0  0  0
 23 24  2  0  0  0  0
 23 54  1  0  0  0  0
 25 27  1  0  0  0  0
 25 26  1  0  0  0  0
 25 46  1  0  0  0  0
 26 27  1  0  0  0  0
 26 47  1  0  0  0  0
 26 48  1  0  0  0  0
 27 49  1  0  0  0  0
 27 50  1  0  0  0  0
 28 51  1  0  0  0  0
 28 52  1  0  0  0  0
 28 53  1  0  0  0  0
M  CHG  1  54  -1
M  END
$$$$
ZINC03810112
  -OEChem-08230709463D

 50 54  0     0  0  0  0  0  0999 V2000
    0.6223    7.0743   -0.3681 C   0  0  0  0  0  0  0  0  0  0  0  0
    0.2240    6.4622   -1.6863 C   0  0  0  0  0  0  0  0  0  0  0  0
    0.2841    7.1950   -2.8566 C   0  0  0  0  0  0  0  0  0  0  0  0
   -0.0894    6.6041   -4.0531 C   0  0  0  0  0  0  0  0  0  0  0  0
   -0.5024    5.3542   -4.1008 N   0  0  0  0  0  0  0  0  0  0  0  0
   -0.5792    4.6078   -3.0109 C   0  0  0  0  0  0  0  0  0  0  0  0
   -0.2171    5.1377   -1.7592 C   0  0  0  0  0  0  0  0  0  0  0  0
   -0.3965    4.1543   -0.8419 N   0  0  0  0  0  0  0  0  0  0  0  0
   -0.8343    3.0821   -1.4346 C   0  0  0  0  0  0  0  0  0  0  0  0
   -0.9598    3.3050   -2.7715 N   0  0  0  0  0  0  0  0  0  0  0  0
   -1.4183    2.3381   -3.7722 C   0  0  0  0  0  0  0  0  0  0  0  0
   -2.9150    2.4373   -3.9177 C   0  0  0  0  0  0  0  0  0  0  0  0
   -3.6415    3.2216   -4.7510 C   0  0  0  0  0  0  0  0  0  0  0  0
   -5.0209    3.1421   -4.7135 C   0  0  0  0  0  0  0  0  0  0  0  0
   -5.6067    2.2899   -3.8372 C   0  0  0  0  0  0  0  0  0  0  0  0
   -4.1914    1.5579   -3.0319 S   0  0  0  0  0  0  0  0  0  0  0  0
   -7.0722    2.0284   -3.6030 C   0  0  0  0  0  0  0  0  0  0  0  0
   -7.7797    3.2882   -3.0521 C   0  0  0  0  0  0  0  0  0  0  0  0
   -8.7825    2.7586   -2.0525 C   0  0  0  0  0  0  0  0  0  0  0  0
   -8.5096    1.5262   -1.7205 C   0  0  0  0  0  0  0  0  0  0  0  0
   -7.2791    1.0280   -2.4422 C   0  0  0  0  0  0  0  0  0  0  0  0
   -7.7397    1.5407   -4.8630 C   0  0  0  0  0  0  0  0  0  0  0  0
   -8.2849    0.4625   -4.8794 O   0  0  0  0  0  0  0  0  0  0  0  0
   -1.1502    1.7810   -0.7428 C   0  0  0  0  0  0  0  0  0  0  0  0
   -0.0127    1.0858    0.0080 C   0  0  0  0  0  0  0  0  0  0  0  0
   -1.1356    1.7728    0.7878 C   0  0  0  0  0  0  0  0  0  0  0  0
   -0.0213    7.4078   -5.3260 C   0  0  0  0  0  0  0  0  0  0  0  0
    1.6858    6.9078   -0.1968 H   0  0  0  0  0  0  0  0  0  0  0  0
    0.4210    8.1454   -0.3892 H   0  0  0  0  0  0  0  0  0  0  0  0
    0.0483    6.6125    0.4352 H   0  0  0  0  0  0  0  0  0  0  0  0
    0.6203    8.2212   -2.8388 H   0  0  0  0  0  0  0  0  0  0  0  0
   -0.9450    2.5544   -4.7299 H   0  0  0  0  0  0  0  0  0  0  0  0
   -1.1502    1.3308   -3.4537 H   0  0  0  0  0  0  0  0  0  0  0  0
   -3.1498    3.8966   -5.4359 H   0  0  0  0  0  0  0  0  0  0  0  0
   -5.6232    3.7532   -5.3695 H   0  0  0  0  0  0  0  0  0  0  0  0
   -7.0608    3.9421   -2.5584 H   0  0  0  0  0  0  0  0  0  0  0  0
   -8.2885    3.8202   -3.8560 H   0  0  0  0  0  0  0  0  0  0  0  0
   -9.6159    3.3256   -1.6647 H   0  0  0  0  0  0  0  0  0  0  0  0
   -9.0872    0.9396   -1.0215 H   0  0  0  0  0  0  0  0  0  0  0  0
   -7.4477    0.0240   -2.8317 H   0  0  0  0  0  0  0  0  0  0  0  0
   -6.4166    1.0360   -1.7758 H   0  0  0  0  0  0  0  0  0  0  0  0
   -1.8835    1.1485   -1.2431 H   0  0  0  0  0  0  0  0  0  0  0  0
    0.0021   -0.0041    0.0020 H   0  0  0  0  0  0  0  0  0  0  0  0
    0.9642    1.5693    0.0013 H   0  0  0  0  0  0  0  0  0  0  0  0
   -1.8595    1.1349    1.2949 H   0  0  0  0  0  0  0  0  0  0  0  0
   -0.8975    2.7084    1.2938 H   0  0  0  0  0  0  0  0  0  0  0  0
    0.9624    7.2872   -5.7797 H   0  0  0  0  0  0  0  0  0  0  0  0
   -0.7863    7.0569   -6.0187 H   0  0  0  0  0  0  0  0  0  0  0  0
   -0.1908    8.4607   -5.1005 H   0  0  0  0  0  0  0  0  0  0  0  0
   -7.7285    2.3039   -5.9671 O   0  5  0  0  0  0  0  0  0  0  0  0
  1  2  1  0  0  0  0
  1 28  1  0  0  0  0
  1 29  1  0  0  0  0
  1 30  1  0  0  0  0
  2  7  2  0  0  0  0
  2  3  1  0  0  0  0
  3  4  2  0  0  0  0
  3 31  1  0  0  0  0
  4  5  1  0  0  0  0
  4 27  1  0  0  0  0
  5  6  2  0  0  0  0
  6 10  1  0  0  0  0
  6  7  1  0  0  0  0
  7  8  1  0  0  0  0
  8  9  2  0  0  0  0
  9 10  1  0  0  0  0
  9 24  1  0  0  0  0
 10 11  1  0  0  0  0
 11 12  1  0  0  0  0
 11 32  1  0  0  0  0
 11 33  1  0  0  0  0
 12 16  1  0  0  0  0
 12 13  2  0  0  0  0
 13 14  1  0  0  0  0
 13 34  1  0  0  0  0
 14 15  2  0  0  0  0
 14 35  1  0  0  0  0
 15 16  1  0  0  0  0
 15 17  1  0  0  0  0
 17 21  1  0  0  0  0
 17 18  1  0  0  0  0
 17 22  1  0  0  0  0
 18 19  1  0  0  0  0
 18 36  1  0  0  0  0
 18 37  1  0  0  0  0
 19 20  2  0  0  0  0
 19 38  1  0  0  0  0
 20 21  1  0  0  0  0
 20 39  1  0  0  0  0
 21 40  1  0  0  0  0
 21 41  1  0  0  0  0
 22 23  2  0  0  0  0
 22 50  1  0  0  0  0
 24 26  1  0  0  0  0
 24 25  1  0  0  0  0
 24 42  1  0  0  0  0
 25 26  1  0  0  0  0
 25 43  1  0  0  0  0
 25 44  1  0  0  0  0
 26 45  1  0  0  0  0
 26 46  1  0  0  0  0
 27 47  1  0  0  0  0
 27 48  1  0  0  0  0
 27 49  1  0  0  0  0
M  CHG  1  50  -1
M  END
$$$$
ZINC03810706
  -OEChem-08230709463D

 56 59  0     0  0  0  0  0  0999 V2000
    0.0518    1.6095   -0.7222 C   0  0  0  0  0  0  0  0  0  0  0  0
    0.0539    0.0841   -0.6044 C   0  0  0  0  0  0  0  0  0  0  0  0
    0.7499   -0.4788   -1.7183 O   0  0  0  0  0  0  0  0  0  0  0  0
    0.8436   -1.8344   -1.7666 C   0  0  0  0  0  0  0  0  0  0  0  0
    0.2829   -2.6079   -0.7605 C   0  0  0  0  0  0  0  0  0  0  0  0
    0.3707   -3.9832   -0.8094 C   0  0  0  0  0  0  0  0  0  0  0  0
    1.0344   -4.6068   -1.8639 C   0  0  0  0  0  0  0  0  0  0  0  0
    1.5977   -3.8232   -2.8640 C   0  0  0  0  0  0  0  0  0  0  0  0
    1.5057   -2.4502   -2.8198 C   0  0  0  0  0  0  0  0  0  0  0  0
    2.2303   -4.7809   -3.8423 C   0  0  0  0  0  0  0  0  0  0  0  0
    3.7340   -4.5386   -3.9282 C   0  0  0  0  0  0  0  0  0  0  0  0
    4.3601   -5.5402   -4.9016 C   0  0  0  0  0  0  0  0  0  0  0  0
    3.7224   -5.3745   -6.2826 C   0  0  0  0  0  0  0  0  0  0  0  0
    2.2190   -5.6419   -6.1861 C   0  0  0  0  0  0  0  0  0  0  0  0
    1.5848   -4.6407   -5.2175 C   0  0  0  0  0  0  0  0  0  0  0  0
    1.9499   -6.1484   -3.2666 C   0  0  0  0  0  0  0  0  0  0  0  0
    2.2854   -7.2134   -3.7403 O   0  0  0  0  0  0  0  0  0  0  0  0
    1.2579   -5.9610   -2.1287 N   0  0  0  0  0  0  0  0  0  0  0  0
    0.7922   -7.0501   -1.2666 C   0  0  0  0  0  0  0  0  0  0  0  0
   -0.6365   -7.3859   -1.6088 C   0  0  0  0  0  0  0  0  0  0  0  0
   -1.6657   -6.8980   -0.8244 C   0  0  0  0  0  0  0  0  0  0  0  0
   -2.9763   -7.1970   -1.1342 C   0  0  0  0  0  0  0  0  0  0  0  0
   -3.2657   -8.0036   -2.2368 C   0  0  0  0  0  0  0  0  0  0  0  0
   -2.2258   -8.4994   -3.0242 C   0  0  0  0  0  0  0  0  0  0  0  0
   -0.9142   -8.1884   -2.7069 C   0  0  0  0  0  0  0  0  0  0  0  0
    0.1017   -8.6689   -3.4713 O   0  0  0  0  0  0  0  0  0  0  0  0
   -0.2565   -9.4884   -4.5858 C   0  0  0  0  0  0  0  0  0  0  0  0
   -4.6677   -8.3312   -2.5683 C   0  0  0  0  0  0  0  0  0  0  0  0
   -4.9169   -9.0333   -3.5277 O   0  0  0  0  0  0  0  0  0  0  0  0
    1.0788    1.9746   -0.7311 H   0  0  0  0  0  0  0  0  0  0  0  0
   -0.4457    1.9019   -1.6469 H   0  0  0  0  0  0  0  0  0  0  0  0
   -0.4791    2.0389    0.1274 H   0  0  0  0  0  0  0  0  0  0  0  0
    0.5514   -0.2082    0.3203 H   0  0  0  0  0  0  0  0  0  0  0  0
   -0.9731   -0.2810   -0.5955 H   0  0  0  0  0  0  0  0  0  0  0  0
   -0.2286   -2.1308    0.0624 H   0  0  0  0  0  0  0  0  0  0  0  0
   -0.0721   -4.5790   -0.0249 H   0  0  0  0  0  0  0  0  0  0  0  0
    1.9484   -1.8531   -3.6034 H   0  0  0  0  0  0  0  0  0  0  0  0
    3.9187   -3.5243   -4.2823 H   0  0  0  0  0  0  0  0  0  0  0  0
    4.1791   -4.6649   -2.9412 H   0  0  0  0  0  0  0  0  0  0  0  0
    4.1874   -6.5542   -4.5409 H   0  0  0  0  0  0  0  0  0  0  0  0
    5.4323   -5.3572   -4.9721 H   0  0  0  0  0  0  0  0  0  0  0  0
    4.1733   -6.0822   -6.9783 H   0  0  0  0  0  0  0  0  0  0  0  0
    3.8884   -4.3581   -6.6398 H   0  0  0  0  0  0  0  0  0  0  0  0
    2.0528   -6.6556   -5.8215 H   0  0  0  0  0  0  0  0  0  0  0  0
    1.7661   -5.5311   -7.1714 H   0  0  0  0  0  0  0  0  0  0  0  0
    0.5159   -4.8390   -5.1387 H   0  0  0  0  0  0  0  0  0  0  0  0
    1.7397   -3.6280   -5.5896 H   0  0  0  0  0  0  0  0  0  0  0  0
    1.4188   -7.9286   -1.4205 H   0  0  0  0  0  0  0  0  0  0  0  0
    0.8525   -6.7390   -0.2236 H   0  0  0  0  0  0  0  0  0  0  0  0
   -1.4428   -6.2778    0.0312 H   0  0  0  0  0  0  0  0  0  0  0  0
   -3.7778   -6.8110   -0.5218 H   0  0  0  0  0  0  0  0  0  0  0  0
   -2.4431   -9.1240   -3.8780 H   0  0  0  0  0  0  0  0  0  0  0  0
    0.6458   -9.8041   -5.1095 H   0  0  0  0  0  0  0  0  0  0  0  0
   -0.7975  -10.3662   -4.2324 H   0  0  0  0  0  0  0  0  0  0  0  0
   -0.8911   -8.9199   -5.2657 H   0  0  0  0  0  0  0  0  0  0  0  0
   -5.6697   -7.8512   -1.8065 O   0  5  0  0  0  0  0  0  0  0  0  0
  1  2  1  0  0  0  0
  1 30  1  0  0  0  0
  1 31  1  0  0  0  0
  1 32  1  0  0  0  0
  2  3  1  0  0  0  0
  2 33  1  0  0  0  0
  2 34  1  0  0  0  0
  3  4  1  0  0  0  0
  4  9  2  0  0  0  0
  4  5  1  0  0  0  0
  5  6  2  0  0  0  0
  5 35  1  0  0  0  0
  6  7  1  0  0  0  0
  6 36  1  0  0  0  0
  7 18  1  0  0  0  0
  7  8  2  0  0  0  0
  8  9  1  0  0  0  0
  8 10  1  0  0  0  0
  9 37  1  0  0  0  0
 10 15  1  0  0  0  0
 10 11  1  0  0  0  0
 10 16  1  0  0  0  0
 11 12  1  0  0  0  0
 11 38  1  0  0  0  0
 11 39  1  0  0  0  0
 12 13  1  0  0  0  0
 12 40  1  0  0  0  0
 12 41  1  0  0  0  0
 13 14  1  0  0  0  0
 13 42  1  0  0  0  0
 13 43  1  0  0  0  0
 14 15  1  0  0  0  0
 14 44  1  0  0  0  0
 14 45  1  0  0  0  0
 15 46  1  0  0  0  0
 15 47  1  0  0  0  0
 16 17  2  0  0  0  0
 16 18  1  0  0  0  0
 18 19  1  0  0  0  0
 19 20  1  0  0  0  0
 19 48  1  0  0  0  0
 19 49  1  0  0  0  0
 20 25  2  0  0  0  0
 20 21  1  0  0  0  0
 21 22  2  0  0  0  0
 21 50  1  0  0  0  0
 22 23  1  0  0  0  0
 22 51  1  0  0  0  0
 23 24  2  0  0  0  0
 23 28  1  0  0  0  0
 24 25  1  0  0  0  0
 24 52  1  0  0  0  0
 25 26  1  0  0  0  0
 26 27  1  0  0  0  0
 27 53  1  0  0  0  0
 27 54  1  0  0  0  0
 27 55  1  0  0  0  0
 28 29  2  0  0  0  0
 28 56  1  0  0  0  0
M  CHG  1  56  -1
M  END
$$$$
ZINC03817460
  -OEChem-08230709463D

 52 54  0     0  0  0  0  0  0999 V2000
   -1.1728   -1.9900   -2.5179 C   0  0  0  0  0  0  0  0  0  0  0  0
   -1.1106   -2.7467   -1.2161 C   0  0  0  0  0  0  0  0  0  0  0  0
   -1.0288   -4.1252   -1.2214 C   0  0  0  0  0  0  0  0  0  0  0  0
   -0.9770   -4.8198   -0.0217 C   0  0  0  0  0  0  0  0  0  0  0  0
   -1.0019   -4.1314    1.1870 C   0  0  0  0  0  0  0  0  0  0  0  0
   -1.0784   -2.7530    1.1910 C   0  0  0  0  0  0  0  0  0  0  0  0
   -1.1302   -2.0592   -0.0126 C   0  0  0  0  0  0  0  0  0  0  0  0
   -1.2060   -0.7019   -0.0091 O   0  0  0  0  0  0  0  0  0  0  0  0
   -0.0431    0.0024   -0.0205 C   0  0  0  0  0  0  0  0  0  0  0  0
    1.1727   -0.6661   -0.0356 C   0  0  0  0  0  0  0  0  0  0  0  0
    2.3539    0.0494   -0.0476 C   0  0  0  0  0  0  0  0  0  0  0  0
    2.3248    1.4363   -0.0450 C   0  0  0  0  0  0  0  0  0  0  0  0
    1.1097    2.1046   -0.0295 C   0  0  0  0  0  0  0  0  0  0  0  0
   -0.0719    1.3892   -0.0175 C   0  0  0  0  0  0  0  0  0  0  0  0
    1.0784    3.6113   -0.0268 C   0  0  0  0  0  0  0  0  0  0  0  0
    0.3328    4.1081   -1.2670 C   0  0  0  0  0  0  0  0  0  0  0  0
    0.3606    4.1041    1.2313 C   0  0  0  0  0  0  0  0  0  0  0  0
    3.4879    2.1407   -0.0573 O   0  0  0  0  0  0  0  0  0  0  0  0
   -1.0914   -2.2448    2.6169 C   0  0  0  0  0  0  0  0  0  0  0  0
   -0.5761   -3.4232    3.4702 C   0  0  0  0  0  0  0  0  0  0  0  0
   -0.9582   -4.6463    2.6098 C   0  0  0  0  0  0  0  0  0  0  0  0
   -0.8998   -6.2186   -0.0273 N   0  0  0  0  0  0  0  0  0  0  0  0
   -0.3851   -6.8608   -1.0946 C   0  0  0  0  0  0  0  0  0  0  0  0
    0.1028   -6.2271   -2.0065 O   0  0  0  0  0  0  0  0  0  0  0  0
   -0.4156   -8.3663   -1.1549 C   0  0  0  0  0  0  0  0  0  0  0  0
    0.2175   -8.8304   -2.4413 C   0  0  0  0  0  0  0  0  0  0  0  0
    0.6491   -8.0217   -3.2284 O   0  0  0  0  0  0  0  0  0  0  0  0
   -0.1618   -1.7506   -2.8476 H   0  0  0  0  0  0  0  0  0  0  0  0
   -1.6650   -2.6041   -3.2720 H   0  0  0  0  0  0  0  0  0  0  0  0
   -1.7364   -1.0679   -2.3757 H   0  0  0  0  0  0  0  0  0  0  0  0
   -1.0093   -4.6621   -2.1582 H   0  0  0  0  0  0  0  0  0  0  0  0
    1.1953   -1.7458   -0.0375 H   0  0  0  0  0  0  0  0  0  0  0  0
    3.3002   -0.4709   -0.0593 H   0  0  0  0  0  0  0  0  0  0  0  0
   -1.0183    1.9096   -0.0103 H   0  0  0  0  0  0  0  0  0  0  0  0
    2.0982    3.9959   -0.0375 H   0  0  0  0  0  0  0  0  0  0  0  0
   -0.6870    3.7235   -1.2563 H   0  0  0  0  0  0  0  0  0  0  0  0
    0.3102    5.1979   -1.2650 H   0  0  0  0  0  0  0  0  0  0  0  0
    0.8442    3.7570   -2.1633 H   0  0  0  0  0  0  0  0  0  0  0  0
    0.8918    3.7502    2.1149 H   0  0  0  0  0  0  0  0  0  0  0  0
    0.3379    5.1939    1.2333 H   0  0  0  0  0  0  0  0  0  0  0  0
   -0.6592    3.7195    1.2420 H   0  0  0  0  0  0  0  0  0  0  0  0
    3.8142    2.3458   -0.9442 H   0  0  0  0  0  0  0  0  0  0  0  0
   -0.4281   -1.3859    2.7183 H   0  0  0  0  0  0  0  0  0  0  0  0
   -2.1053   -1.9761    2.9134 H   0  0  0  0  0  0  0  0  0  0  0  0
    0.5043   -3.3636    3.6010 H   0  0  0  0  0  0  0  0  0  0  0  0
   -1.0832   -3.4542    4.4346 H   0  0  0  0  0  0  0  0  0  0  0  0
   -0.2038   -5.4272    2.7064 H   0  0  0  0  0  0  0  0  0  0  0  0
   -1.9357   -5.0268    2.9061 H   0  0  0  0  0  0  0  0  0  0  0  0
   -1.2169   -6.7249    0.7369 H   0  0  0  0  0  0  0  0  0  0  0  0
    0.1378   -8.7751   -0.3095 H   0  0  0  0  0  0  0  0  0  0  0  0
   -1.4489   -8.7107   -1.1135 H   0  0  0  0  0  0  0  0  0  0  0  0
    0.3018  -10.1423   -2.7128 O   0  5  0  0  0  0  0  0  0  0  0  0
  1  2  1  0  0  0  0
  1 28  1  0  0  0  0
  1 29  1  0  0  0  0
  1 30  1  0  0  0  0
  2  7  2  0  0  0  0
  2  3  1  0  0  0  0
  3  4  2  0  0  0  0
  3 31  1  0  0  0  0
  4  5  1  0  0  0  0
  4 22  1  0  0  0  0
  5 21  1  0  0  0  0
  5  6  2  0  0  0  0
  6  7  1  0  0  0  0
  6 19  1  0  0  0  0
  7  8  1  0  0  0  0
  8  9  1  0  0  0  0
  9 14  2  0  0  0  0
  9 10  1  0  0  0  0
 10 11  2  0  0  0  0
 10 32  1  0  0  0  0
 11 12  1  0  0  0  0
 11 33  1  0  0  0  0
 12 13  2  0  0  0  0
 12 18  1  0  0  0  0
 13 14  1  0  0  0  0
 13 15  1  0  0  0  0
 14 34  1  0  0  0  0
 15 16  1  0  0  0  0
 15 17  1  0  0  0  0
 15 35  1  0  0  0  0
 16 36  1  0  0  0  0
 16 37  1  0  0  0  0
 16 38  1  0  0  0  0
 17 39  1  0  0  0  0
 17 40  1  0  0  0  0
 17 41  1  0  0  0  0
 18 42  1  0  0  0  0
 19 20  1  0  0  0  0
 19 43  1  0  0  0  0
 19 44  1  0  0  0  0
 20 21  1  0  0  0  0
 20 45  1  0  0  0  0
 20 46  1  0  0  0  0
 21 47  1  0  0  0  0
 21 48  1  0  0  0  0
 22 23  1  0  0  0  0
 22 49  1  0  0  0  0
 23 24  2  0  0  0  0
 23 25  1  0  0  0  0
 25 26  1  0  0  0  0
 25 50  1  0  0  0  0
 25 51  1  0  0  0  0
 26 27  2  0  0  0  0
 26 52  1  0  0  0  0
M  CHG  1  52  -1
M  END
$$$$
ZINC03817738
  -OEChem-08230709463D

 52 54  0     0  0  0  0  0  0999 V2000
    9.6904    1.4037    0.6267 C   0  0  0  0  0  0  0  0  0  0  0  0
    9.6326    0.5050   -0.6236 C   0  0  0  0  0  0  0  0  0  0  0  0
   10.9307   -0.2851   -0.6963 C   0  0  0  0  0  0  0  0  0  0  0  0
   10.7685   -1.6780   -1.2930 C   0  0  0  0  0  0  0  0  0  0  0  0
    9.7048   -2.3736   -0.6512 O   0  0  0  0  0  0  0  0  0  0  0  0
    8.5080   -1.7543   -0.5312 C   0  0  0  0  0  0  0  0  0  0  0  0
    8.4155   -0.3722   -0.5174 C   0  0  0  0  0  0  0  0  0  0  0  0
    7.1750    0.2267   -0.3947 C   0  0  0  0  0  0  0  0  0  0  0  0
    6.0164   -0.5467   -0.2798 C   0  0  0  0  0  0  0  0  0  0  0  0
    6.1064   -1.9386   -0.2911 C   0  0  0  0  0  0  0  0  0  0  0  0
    7.3517   -2.5432   -0.4163 C   0  0  0  0  0  0  0  0  0  0  0  0
    7.4525   -3.9719   -0.4296 C   0  0  0  0  0  0  0  0  0  0  0  0
    7.5351   -5.1429   -0.4405 C   0  0  0  0  0  0  0  0  0  0  0  0
    4.7027    0.1096   -0.1464 C   0  0  0  0  0  0  0  0  0  0  0  0
    4.6276    1.3224   -0.1369 O   0  0  0  0  0  0  0  0  0  0  0  0
    3.5854   -0.6356   -0.0351 O   0  0  0  0  0  0  0  0  0  0  0  0
    2.3990    0.0273   -0.0369 C   0  0  0  0  0  0  0  0  0  0  0  0
    1.9512    0.6473   -1.1949 C   0  0  0  0  0  0  0  0  0  0  0  0
    0.7450    1.3204   -1.1957 C   0  0  0  0  0  0  0  0  0  0  0  0
   -0.0175    1.3773   -0.0438 C   0  0  0  0  0  0  0  0  0  0  0  0
    0.4261    0.7599    1.1136 C   0  0  0  0  0  0  0  0  0  0  0  0
    1.6339    0.0846    1.1184 C   0  0  0  0  0  0  0  0  0  0  0  0
   -0.3205    0.8167    2.2381 F   0  0  0  0  0  0  0  0  0  0  0  0
   -1.3301    2.1176   -0.0462 C   0  0  0  0  0  0  0  0  0  0  0  0
   -2.4619    1.1330   -0.1891 C   0  0  0  0  0  0  0  0  0  0  0  0
   -2.2268   -0.0487   -0.2797 O   0  0  0  0  0  0  0  0  0  0  0  0
   12.0698   -2.4694   -1.0611 C   0  0  0  0  0  0  0  0  0  0  0  0
   10.5123   -1.6087   -2.8006 C   0  0  0  0  0  0  0  0  0  0  0  0
    9.5060    1.4151   -1.8513 C   0  0  0  0  0  0  0  0  0  0  0  0
   10.5397    2.0823    0.5474 H   0  0  0  0  0  0  0  0  0  0  0  0
    8.7693    1.9817    0.7015 H   0  0  0  0  0  0  0  0  0  0  0  0
    9.8030    0.7829    1.5155 H   0  0  0  0  0  0  0  0  0  0  0  0
   11.3500   -0.3766    0.3152 H   0  0  0  0  0  0  0  0  0  0  0  0
   11.6621    0.2797   -1.2958 H   0  0  0  0  0  0  0  0  0  0  0  0
    7.0890    1.3047   -0.3878 H   0  0  0  0  0  0  0  0  0  0  0  0
    5.2151   -2.5417   -0.2028 H   0  0  0  0  0  0  0  0  0  0  0  0
    7.6091   -6.1902   -0.4502 H   0  0  0  0  0  0  0  0  0  0  0  0
    2.5457    0.6033   -2.0955 H   0  0  0  0  0  0  0  0  0  0  0  0
    0.3973    1.8030   -2.0971 H   0  0  0  0  0  0  0  0  0  0  0  0
    1.9802   -0.3975    2.0206 H   0  0  0  0  0  0  0  0  0  0  0  0
   -1.4404    2.6646    0.8902 H   0  0  0  0  0  0  0  0  0  0  0  0
   -1.3506    2.8184   -0.8808 H   0  0  0  0  0  0  0  0  0  0  0  0
   11.9672   -3.4691   -1.4834 H   0  0  0  0  0  0  0  0  0  0  0  0
   12.8996   -1.9541   -1.5449 H   0  0  0  0  0  0  0  0  0  0  0  0
   12.2633   -2.5451    0.0089 H   0  0  0  0  0  0  0  0  0  0  0  0
    9.5758   -1.0828   -2.9862 H   0  0  0  0  0  0  0  0  0  0  0  0
   11.3306   -1.0751   -3.2840 H   0  0  0  0  0  0  0  0  0  0  0  0
   10.4481   -2.6189   -3.2051 H   0  0  0  0  0  0  0  0  0  0  0  0
    9.5065    0.8070   -2.7559 H   0  0  0  0  0  0  0  0  0  0  0  0
    8.5742    1.9775   -1.7921 H   0  0  0  0  0  0  0  0  0  0  0  0
   10.3473    2.1076   -1.8786 H   0  0  0  0  0  0  0  0  0  0  0  0
   -3.7313    1.5687   -0.2157 O   0  5  0  0  0  0  0  0  0  0  0  0
  1  2  1  0  0  0  0
  1 30  1  0  0  0  0
  1 31  1  0  0  0  0
  1 32  1  0  0  0  0
  2  7  1  0  0  0  0
  2  3  1  0  0  0  0
  2 29  1  0  0  0  0
  3  4  1  0  0  0  0
  3 33  1  0  0  0  0
  3 34  1  0  0  0  0
  4  5  1  0  0  0  0
  4 27  1  0  0  0  0
  4 28  1  0  0  0  0
  5  6  1  0  0  0  0
  6 11  2  0  0  0  0
  6  7  1  0  0  0  0
  7  8  2  0  0  0  0
  8  9  1  0  0  0  0
  8 35  1  0  0  0  0
  9 10  2  0  0  0  0
  9 14  1  0  0  0  0
 10 11  1  0  0  0  0
 10 36  1  0  0  0  0
 11 12  1  0  0  0  0
 12 13  3  0  0  0  0
 13 37  1  0  0  0  0
 14 15  2  0  0  0  0
 14 16  1  0  0  0  0
 16 17  1  0  0  0  0
 17 22  2  0  0  0  0
 17 18  1  0  0  0  0
 18 19  2  0  0  0  0
 18 38  1  0  0  0  0
 19 20  1  0  0  0  0
 19 39  1  0  0  0  0
 20 21  2  0  0  0  0
 20 24  1  0  0  0  0
 21 22  1  0  0  0  0
 21 23  1  0  0  0  0
 22 40  1  0  0  0  0
 24 25  1  0  0  0  0
 24 41  1  0  0  0  0
 24 42  1  0  0  0  0
 25 26  2  0  0  0  0
 25 52  1  0  0  0  0
 27 43  1  0  0  0  0
 27 44  1  0  0  0  0
 27 45  1  0  0  0  0
 28 46  1  0  0  0  0
 28 47  1  0  0  0  0
 28 48  1  0  0  0  0
 29 49  1  0  0  0  0
 29 50  1  0  0  0  0
 29 51  1  0  0  0  0
M  CHG  1  52  -1
M  END
$$$$
ZINC03817739
  -OEChem-08230709463D

 52 54  0     0  0  0  0  0  0999 V2000
    0.9697    5.9411    0.9641 C   0  0  0  0  0  0  0  0  0  0  0  0
    0.0891    5.3528   -0.0829 C   0  0  0  0  0  0  0  0  0  0  0  0
   -1.2911    5.9868   -0.0712 C   0  0  0  0  0  0  0  0  0  0  0  0
   -2.2758    5.1462    0.7017 C   0  0  0  0  0  0  0  0  0  0  0  0
   -2.3035    3.8765    0.0926 O   0  0  0  0  0  0  0  0  0  0  0  0
   -1.1965    3.1478    0.0001 C   0  0  0  0  0  0  0  0  0  0  0  0
    0.0223    3.8871   -0.0283 C   0  0  0  0  0  0  0  0  0  0  0  0
    1.2418    3.1434   -0.1436 C   0  0  0  0  0  0  0  0  0  0  0  0
    1.1894    1.7780   -0.0434 C   0  0  0  0  0  0  0  0  0  0  0  0
   -0.0170    1.0948    0.0079 C   0  0  0  0  0  0  0  0  0  0  0  0
   -1.1899    1.7540    0.1125 C   0  0  0  0  0  0  0  0  0  0  0  0
   -2.4127    1.1441    0.1508 C   0  0  0  0  0  0  0  0  0  0  0  0
   -3.4628    0.6202    0.1837 C   0  0  0  0  0  0  0  0  0  0  0  0
    2.5077    0.9979   -0.1771 C   0  0  0  0  0  0  0  0  0  0  0  0
    3.5651    1.5948   -0.2222 O   0  0  0  0  0  0  0  0  0  0  0  0
    2.4904   -0.3480   -0.2445 O   0  0  0  0  0  0  0  0  0  0  0  0
    3.6784   -0.9701   -0.4649 C   0  0  0  0  0  0  0  0  0  0  0  0
    3.9771   -1.4717   -1.7235 C   0  0  0  0  0  0  0  0  0  0  0  0
    5.1876   -2.0990   -1.9463 C   0  0  0  0  0  0  0  0  0  0  0  0
    6.0964   -2.2373   -0.9134 C   0  0  0  0  0  0  0  0  0  0  0  0
    5.7989   -1.7429    0.3431 C   0  0  0  0  0  0  0  0  0  0  0  0
    4.5922   -1.1097    0.5697 C   0  0  0  0  0  0  0  0  0  0  0  0
    7.4135   -2.9276   -1.1578 C   0  0  0  0  0  0  0  0  0  0  0  0
    7.2650   -4.4029   -0.8884 C   0  0  0  0  0  0  0  0  0  0  0  0
    6.1990   -4.8480   -0.5343 O   0  0  0  0  0  0  0  0  0  0  0  0
   -3.6847    5.8659    0.5047 C   0  0  0  0  0  0  0  0  0  0  0  0
   -1.9607    5.1371    2.1648 C   0  0  0  0  0  0  0  0  0  0  0  0
    0.7985    5.7774   -1.5239 C   0  0  0  0  0  0  0  0  0  0  0  0
    1.9840    5.5613    0.8413 H   0  0  0  0  0  0  0  0  0  0  0  0
    0.9740    7.0268    0.8671 H   0  0  0  0  0  0  0  0  0  0  0  0
    0.5956    5.6659    1.9502 H   0  0  0  0  0  0  0  0  0  0  0  0
   -1.6525    6.2815   -1.0986 H   0  0  0  0  0  0  0  0  0  0  0  0
   -1.1948    7.0146    0.4610 H   0  0  0  0  0  0  0  0  0  0  0  0
    2.1405    3.6307   -0.1669 H   0  0  0  0  0  0  0  0  0  0  0  0
    0.0048   -0.0106    0.0363 H   0  0  0  0  0  0  0  0  0  0  0  0
   -4.4020    0.1517    0.2130 H   0  0  0  0  0  0  0  0  0  0  0  0
    3.2656   -1.3682   -2.5294 H   0  0  0  0  0  0  0  0  0  0  0  0
    5.4226   -2.4854   -2.9271 H   0  0  0  0  0  0  0  0  0  0  0  0
    6.5107   -1.8515    1.1481 H   0  0  0  0  0  0  0  0  0  0  0  0
    4.3605   -0.7234    1.5512 H   0  0  0  0  0  0  0  0  0  0  0  0
    7.7164   -2.7761   -2.1938 H   0  0  0  0  0  0  0  0  0  0  0  0
    8.1706   -2.5113   -0.4933 H   0  0  0  0  0  0  0  0  0  0  0  0
   -4.4683    5.2620    0.9624 H   0  0  0  0  0  0  0  0  0  0  0  0
   -3.6603    6.8479    0.9770 H   0  0  0  0  0  0  0  0  0  0  0  0
   -3.8888    5.9797   -0.5599 H   0  0  0  0  0  0  0  0  0  0  0  0
   -0.9776    4.6932    2.3220 H   0  0  0  0  0  0  0  0  0  0  0  0
   -1.9625    6.1593    2.5432 H   0  0  0  0  0  0  0  0  0  0  0  0
   -2.7124    4.5522    2.6948 H   0  0  0  0  0  0  0  0  0  0  0  0
    0.1989    5.3958   -2.3504 H   0  0  0  0  0  0  0  0  0  0  0  0
    0.8612    6.8635   -1.5918 H   0  0  0  0  0  0  0  0  0  0  0  0
    1.8006    5.3517   -1.5750 H   0  0  0  0  0  0  0  0  0  0  0  0
    8.3170   -5.2223   -1.0418 O   0  5  0  0  0  0  0  0  0  0  0  0
  1  2  1  0  0  0  0
  1 29  1  0  0  0  0
  1 30  1  0  0  0  0
  1 31  1  0  0  0  0
  2  7  1  0  0  0  0
  2  3  1  0  0  0  0
  2 28  1  0  0  0  0
  3  4  1  0  0  0  0
  3 32  1  0  0  0  0
  3 33  1  0  0  0  0
  4  5  1  0  0  0  0
  4 26  1  0  0  0  0
  4 27  1  0  0  0  0
  5  6  1  0  0  0  0
  6 11  2  0  0  0  0
  6  7  1  0  0  0  0
  7  8  2  0  0  0  0
  8  9  1  0  0  0  0
  8 34  1  0  0  0  0
  9 10  2  0  0  0  0
  9 14  1  0  0  0  0
 10 11  1  0  0  0  0
 10 35  1  0  0  0  0
 11 12  1  0  0  0  0
 12 13  3  0  0  0  0
 13 36  1  0  0  0  0
 14 15  2  0  0  0  0
 14 16  1  0  0  0  0
 16 17  1  0  0  0  0
 17 22  2  0  0  0  0
 17 18  1  0  0  0  0
 18 19  2  0  0  0  0
 18 37  1  0  0  0  0
 19 20  1  0  0  0  0
 19 38  1  0  0  0  0
 20 21  2  0  0  0  0
 20 23  1  0  0  0  0
 21 22  1  0  0  0  0
 21 39  1  0  0  0  0
 22 40  1  0  0  0  0
 23 24  1  0  0  0  0
 23 41  1  0  0  0  0
 23 42  1  0  0  0  0
 24 25  2  0  0  0  0
 24 52  1  0  0  0  0
 26 43  1  0  0  0  0
 26 44  1  0  0  0  0
 26 45  1  0  0  0  0
 27 46  1  0  0  0  0
 27 47  1  0  0  0  0
 27 48  1  0  0  0  0
 28 49  1  0  0  0  0
 28 50  1  0  0  0  0
 28 51  1  0  0  0  0
M  CHG  1  52  -1
M  END
$$$$
ZINC03819496
  -OEChem-08230709463D

 54 57  0     0  0  0  0  0  0999 V2000
    0.0310    1.2054   -2.4872 C   0  0  0  0  0  0  0  0  0  0  0  0
   -0.7527    1.5927   -1.2315 C   0  0  0  0  0  0  0  0  0  0  0  0
   -2.1465    0.9639   -1.2860 C   0  0  0  0  0  0  0  0  0  0  0  0
   -0.0127    1.0858    0.0080 C   0  0  0  0  0  0  0  0  0  0  0  0
   -0.7181    1.5718    1.2479 C   0  0  0  0  0  0  0  0  0  0  0  0
   -0.3572    2.7803    1.8166 C   0  0  0  0  0  0  0  0  0  0  0  0
   -1.0028    3.2337    2.9484 C   0  0  0  0  0  0  0  0  0  0  0  0
   -2.0145    2.4651    3.5260 C   0  0  0  0  0  0  0  0  0  0  0  0
   -2.3699    1.2442    2.9505 C   0  0  0  0  0  0  0  0  0  0  0  0
   -1.7199    0.8048    1.8157 C   0  0  0  0  0  0  0  0  0  0  0  0
   -2.7072    2.9423    4.7418 C   0  0  0  0  0  0  0  0  0  0  0  0
   -2.4715    4.0671    5.3905 N   0  0  0  0  0  0  0  0  0  0  0  0
   -3.3399    4.0767    6.4233 C   0  0  0  0  0  0  0  0  0  0  0  0
   -4.0397    2.9733    6.3554 N   0  0  0  0  0  0  0  0  0  0  0  0
   -3.6920    2.3119    5.4003 O   0  0  0  0  0  0  0  0  0  0  0  0
   -3.4727    5.1403    7.4504 C   0  0  0  0  0  0  0  0  0  0  0  0
   -2.6525    6.2654    7.4017 C   0  0  0  0  0  0  0  0  0  0  0  0
   -2.7839    7.2538    8.3562 C   0  0  0  0  0  0  0  0  0  0  0  0
   -3.7202    7.1235    9.3659 C   0  0  0  0  0  0  0  0  0  0  0  0
   -4.5334    6.0061    9.4219 C   0  0  0  0  0  0  0  0  0  0  0  0
   -4.4141    5.0142    8.4696 C   0  0  0  0  0  0  0  0  0  0  0  0
   -3.8551    8.2033   10.4085 C   0  0  0  0  0  0  0  0  0  0  0  0
   -1.5544    8.1784   11.1780 C   0  0  0  0  0  0  0  0  0  0  0  0
   -1.3753    8.7947   12.5725 C   0  0  0  0  0  0  0  0  0  0  0  0
   -2.8841    9.0551   12.4622 C   0  0  0  0  0  0  0  0  0  0  0  0
   -0.5332   10.0444   12.5913 C   0  0  0  0  0  0  0  0  0  0  0  0
   -1.0606   11.1293   12.5223 O   0  0  0  0  0  0  0  0  0  0  0  0
    0.1235    0.1205   -2.5376 H   0  0  0  0  0  0  0  0  0  0  0  0
   -0.4962    1.5665   -3.3703 H   0  0  0  0  0  0  0  0  0  0  0  0
    1.0239    1.6533   -2.4484 H   0  0  0  0  0  0  0  0  0  0  0  0
   -0.8452    2.6775   -1.1811 H   0  0  0  0  0  0  0  0  0  0  0  0
   -2.7048    1.2398   -0.3914 H   0  0  0  0  0  0  0  0  0  0  0  0
   -2.6737    1.3250   -2.1691 H   0  0  0  0  0  0  0  0  0  0  0  0
   -2.0540   -0.1210   -1.3364 H   0  0  0  0  0  0  0  0  0  0  0  0
    0.0021   -0.0041    0.0020 H   0  0  0  0  0  0  0  0  0  0  0  0
    1.0099    1.4631    0.0003 H   0  0  0  0  0  0  0  0  0  0  0  0
    0.4289    3.3721    1.3712 H   0  0  0  0  0  0  0  0  0  0  0  0
   -0.7229    4.1791    3.3891 H   0  0  0  0  0  0  0  0  0  0  0  0
   -3.1517    0.6446    3.3928 H   0  0  0  0  0  0  0  0  0  0  0  0
   -1.9938   -0.1397    1.3694 H   0  0  0  0  0  0  0  0  0  0  0  0
   -1.9179    6.3658    6.6165 H   0  0  0  0  0  0  0  0  0  0  0  0
   -2.1514    8.1283    8.3171 H   0  0  0  0  0  0  0  0  0  0  0  0
   -5.2629    5.9094   10.2124 H   0  0  0  0  0  0  0  0  0  0  0  0
   -5.0491    4.1418    8.5146 H   0  0  0  0  0  0  0  0  0  0  0  0
   -3.5867    9.1653    9.9721 H   0  0  0  0  0  0  0  0  0  0  0  0
   -4.8853    8.2396   10.7627 H   0  0  0  0  0  0  0  0  0  0  0  0
   -0.9653    7.2743   11.0239 H   0  0  0  0  0  0  0  0  0  0  0  0
   -1.4425    8.8985   10.3674 H   0  0  0  0  0  0  0  0  0  0  0  0
   -1.1016    8.0770   13.3459 H   0  0  0  0  0  0  0  0  0  0  0  0
   -3.1271   10.0091   11.9943 H   0  0  0  0  0  0  0  0  0  0  0  0
   -3.4220    8.8939   13.3964 H   0  0  0  0  0  0  0  0  0  0  0  0
   -2.8738    8.0099   11.5546 N   0  3  0  0  0  0  0  0  0  0  0  0
   -3.0458    7.0995   11.9972 H   0  0  0  0  0  0  0  0  0  0  0  0
    0.8026    9.9523   12.6848 O   0  5  0  0  0  0  0  0  0  0  0  0
  1  2  1  0  0  0  0
  1 28  1  0  0  0  0
  1 29  1  0  0  0  0
  1 30  1  0  0  0  0
  2  3  1  0  0  0  0
  2  4  1  0  0  0  0
  2 31  1  0  0  0  0
  3 32  1  0  0  0  0
  3 33  1  0  0  0  0
  3 34  1  0  0  0  0
  4  5  1  0  0  0  0
  4 35  1  0  0  0  0
  4 36  1  0  0  0  0
  5 10  2  0  0  0  0
  5  6  1  0  0  0  0
  6  7  2  0  0  0  0
  6 37  1  0  0  0  0
  7  8  1  0  0  0  0
  7 38  1  0  0  0  0
  8  9  2  0  0  0  0
  8 11  1  0  0  0  0
  9 10  1  0  0  0  0
  9 39  1  0  0  0  0
 10 40  1  0  0  0  0
 11 15  1  0  0  0  0
 11 12  2  0  0  0  0
 12 13  1  0  0  0  0
 13 14  2  0  0  0  0
 13 16  1  0  0  0  0
 14 15  1  0  0  0  0
 16 21  2  0  0  0  0
 16 17  1  0  0  0  0
 17 18  2  0  0  0  0
 17 41  1  0  0  0  0
 18 19  1  0  0  0  0
 18 42  1  0  0  0  0
 19 20  2  0  0  0  0
 19 22  1  0  0  0  0
 20 21  1  0  0  0  0
 20 43  1  0  0  0  0
 21 44  1  0  0  0  0
 22 45  1  0  0  0  0
 22 46  1  0  0  0  0
 22 52  1  0  0  0  0
 23 24  1  0  0  0  0
 23 47  1  0  0  0  0
 23 48  1  0  0  0  0
 23 52  1  0  0  0  0
 24 25  1  0  0  0  0
 24 26  1  0  0  0  0
 24 49  1  0  0  0  0
 25 50  1  0  0  0  0
 25 51  1  0  0  0  0
 25 52  1  0  0  0  0
 26 27  2  0  0  0  0
 26 54  1  0  0  0  0
 52 53  1  0  0  0  0
M  CHG  2  52   1  54  -1
M  END
$$$$
ZINC03824486
  -OEChem-08230709463D

 57 60  0     0  0  0  0  0  0999 V2000
   -0.8376    3.3362   -0.0680 C   0  0  0  0  0  0  0  0  0  0  0  0
   -1.0467    1.8473    0.0342 C   0  0  0  0  0  0  0  0  0  0  0  0
   -0.0122    0.9956   -0.2120 C   0  0  0  0  0  0  0  0  0  0  0  0
    1.2090    1.4950   -0.7110 C   0  0  0  0  0  0  0  0  0  0  0  0
    1.3038    2.6669   -1.0269 O   0  0  0  0  0  0  0  0  0  0  0  0
   -2.3083    1.3375    0.3833 C   0  0  0  0  0  0  0  0  0  0  0  0
   -3.3429    2.1892    0.6295 C   0  0  0  0  0  0  0  0  0  0  0  0
   -4.6074    1.6782    0.9794 C   0  0  0  0  0  0  0  0  0  0  0  0
   -5.6368    2.5256    1.2244 C   0  0  0  0  0  0  0  0  0  0  0  0
   -5.4277    4.0145    1.1222 C   0  0  0  0  0  0  0  0  0  0  0  0
   -6.9555    1.9927    1.5893 C   0  0  0  0  0  0  0  0  0  0  0  0
   -7.6860    1.2321    0.6673 C   0  0  0  0  0  0  0  0  0  0  0  0
   -8.9195    0.7310    1.0165 C   0  0  0  0  0  0  0  0  0  0  0  0
   -9.4453    0.9876    2.2779 C   0  0  0  0  0  0  0  0  0  0  0  0
   -8.7271    1.7462    3.1949 C   0  0  0  0  0  0  0  0  0  0  0  0
   -7.4900    2.2480    2.8583 C   0  0  0  0  0  0  0  0  0  0  0  0
   -9.3039    2.0204    4.5599 C   0  0  0  0  0  0  0  0  0  0  0  0
   -8.3213    2.8709    5.3673 C   0  0  0  0  0  0  0  0  0  0  0  0
   -8.9069    3.1493    6.7531 C   0  0  0  0  0  0  0  0  0  0  0  0
  -10.2310    3.9016    6.6055 C   0  0  0  0  0  0  0  0  0  0  0  0
  -11.2136    3.0510    5.7981 C   0  0  0  0  0  0  0  0  0  0  0  0
  -10.6280    2.7727    4.4123 C   0  0  0  0  0  0  0  0  0  0  0  0
  -11.4577    1.7265    6.5241 C   0  0  0  0  0  0  0  0  0  0  0  0
  -10.1336    0.9742    6.6716 C   0  0  0  0  0  0  0  0  0  0  0  0
   -9.1511    1.8248    7.4791 C   0  0  0  0  0  0  0  0  0  0  0  0
   -9.5480    0.6959    5.2858 C   0  0  0  0  0  0  0  0  0  0  0  0
  -10.6650    0.4956    2.6149 O   0  0  0  0  0  0  0  0  0  0  0  0
   -0.9554    3.6493   -1.1054 H   0  0  0  0  0  0  0  0  0  0  0  0
   -1.5724    3.8497    0.5521 H   0  0  0  0  0  0  0  0  0  0  0  0
    0.1661    3.5866    0.2754 H   0  0  0  0  0  0  0  0  0  0  0  0
   -0.1286   -0.0624   -0.0293 H   0  0  0  0  0  0  0  0  0  0  0  0
   -2.4581    0.2704    0.4565 H   0  0  0  0  0  0  0  0  0  0  0  0
   -3.1931    3.2562    0.5563 H   0  0  0  0  0  0  0  0  0  0  0  0
   -4.7573    0.6112    1.0527 H   0  0  0  0  0  0  0  0  0  0  0  0
   -5.6395    4.3421    0.1044 H   0  0  0  0  0  0  0  0  0  0  0  0
   -6.0978    4.5239    1.8147 H   0  0  0  0  0  0  0  0  0  0  0  0
   -4.3946    4.2545    1.3736 H   0  0  0  0  0  0  0  0  0  0  0  0
   -7.2803    1.0357   -0.3141 H   0  0  0  0  0  0  0  0  0  0  0  0
   -9.4819    0.1413    0.3078 H   0  0  0  0  0  0  0  0  0  0  0  0
   -6.9330    2.8375    3.5714 H   0  0  0  0  0  0  0  0  0  0  0  0
   -7.3780    2.3350    5.4724 H   0  0  0  0  0  0  0  0  0  0  0  0
   -8.1474    3.8146    4.8501 H   0  0  0  0  0  0  0  0  0  0  0  0
   -8.2069    3.7553    7.3283 H   0  0  0  0  0  0  0  0  0  0  0  0
  -10.0571    4.8452    6.0884 H   0  0  0  0  0  0  0  0  0  0  0  0
  -10.6482    4.0999    7.5928 H   0  0  0  0  0  0  0  0  0  0  0  0
  -12.1569    3.5869    5.6930 H   0  0  0  0  0  0  0  0  0  0  0  0
  -10.4541    3.7163    3.8951 H   0  0  0  0  0  0  0  0  0  0  0  0
  -11.3280    2.1667    3.8371 H   0  0  0  0  0  0  0  0  0  0  0  0
  -11.8749    1.9248    7.5113 H   0  0  0  0  0  0  0  0  0  0  0  0
  -12.1577    1.1205    5.9488 H   0  0  0  0  0  0  0  0  0  0  0  0
  -10.3076    0.0306    7.1888 H   0  0  0  0  0  0  0  0  0  0  0  0
   -8.2078    1.2889    7.5842 H   0  0  0  0  0  0  0  0  0  0  0  0
   -9.5683    2.0231    8.4663 H   0  0  0  0  0  0  0  0  0  0  0  0
  -10.2480    0.0899    4.7106 H   0  0  0  0  0  0  0  0  0  0  0  0
   -8.6047    0.1599    5.3909 H   0  0  0  0  0  0  0  0  0  0  0  0
  -11.3999    1.0876    2.4038 H   0  0  0  0  0  0  0  0  0  0  0  0
    2.2729    0.6732   -0.8384 O   0  5  0  0  0  0  0  0  0  0  0  0
  1  2  1  0  0  0  0
  1 28  1  0  0  0  0
  1 29  1  0  0  0  0
  1 30  1  0  0  0  0
  2  3  2  0  0  0  0
  2  6  1  0  0  0  0
  3  4  1  0  0  0  0
  3 31  1  0  0  0  0
  4  5  2  0  0  0  0
  4 57  1  0  0  0  0
  6  7  2  0  0  0  0
  6 32  1  0  0  0  0
  7  8  1  0  0  0  0
  7 33  1  0  0  0  0
  8  9  2  0  0  0  0
  8 34  1  0  0  0  0
  9 10  1  0  0  0  0
  9 11  1  0  0  0  0
 10 35  1  0  0  0  0
 10 36  1  0  0  0  0
 10 37  1  0  0  0  0
 11 16  2  0  0  0  0
 11 12  1  0  0  0  0
 12 13  2  0  0  0  0
 12 38  1  0  0  0  0
 13 14  1  0  0  0  0
 13 39  1  0  0  0  0
 14 15  2  0  0  0  0
 14 27  1  0  0  0  0
 15 16  1  0  0  0  0
 15 17  1  0  0  0  0
 16 40  1  0  0  0  0
 17 22  1  0  0  0  0
 17 26  1  0  0  0  0
 17 18  1  0  0  0  0
 18 19  1  0  0  0  0
 18 41  1  0  0  0  0
 18 42  1  0  0  0  0
 19 25  1  0  0  0  0
 19 20  1  0  0  0  0
 19 43  1  0  0  0  0
 20 21  1  0  0  0  0
 20 44  1  0  0  0  0
 20 45  1  0  0  0  0
 21 22  1  0  0  0  0
 21 23  1  0  0  0  0
 21 46  1  0  0  0  0
 22 47  1  0  0  0  0
 22 48  1  0  0  0  0
 23 24  1  0  0  0  0
 23 49  1  0  0  0  0
 23 50  1  0  0  0  0
 24 25  1  0  0  0  0
 24 26  1  0  0  0  0
 24 51  1  0  0  0  0
 25 52  1  0  0  0  0
 25 53  1  0  0  0  0
 26 54  1  0  0  0  0
 26 55  1  0  0  0  0
 27 56  1  0  0  0  0
M  CHG  1  57  -1
M  END
$$$$
ZINC03824493
  -OEChem-08230709463D

 56 60  0     0  0  0  0  0  0999 V2000
   -4.6643   -1.6517  -10.6117 C   0  0  0  0  0  0  0  0  0  0  0  0
   -4.8235   -0.1754  -10.8691 C   0  0  0  0  0  0  0  0  0  0  0  0
   -5.3951    0.2551  -12.0242 C   0  0  0  0  0  0  0  0  0  0  0  0
   -5.7338   -0.6739  -13.0342 C   0  0  0  0  0  0  0  0  0  0  0  0
   -5.5999   -1.8668  -12.8335 O   0  0  0  0  0  0  0  0  0  0  0  0
   -4.3791    0.7593   -9.9112 C   0  0  0  0  0  0  0  0  0  0  0  0
   -3.7087    0.3367   -8.8130 C   0  0  0  0  0  0  0  0  0  0  0  0
   -3.1499    1.3160   -7.8717 C   0  0  0  0  0  0  0  0  0  0  0  0
   -3.3140    2.6948   -8.1158 C   0  0  0  0  0  0  0  0  0  0  0  0
   -2.8059    3.6163   -7.2610 C   0  0  0  0  0  0  0  0  0  0  0  0
   -2.1047    3.2023   -6.1117 C   0  0  0  0  0  0  0  0  0  0  0  0
   -1.5717    4.1410   -5.2154 C   0  0  0  0  0  0  0  0  0  0  0  0
   -0.8905    3.7062   -4.1005 C   0  0  0  0  0  0  0  0  0  0  0  0
   -0.7241    2.3397   -3.8519 C   0  0  0  0  0  0  0  0  0  0  0  0
   -1.2257    1.4090   -4.7062 C   0  0  0  0  0  0  0  0  0  0  0  0
   -1.9321    1.8180   -5.8530 C   0  0  0  0  0  0  0  0  0  0  0  0
   -2.4624    0.8775   -6.7466 C   0  0  0  0  0  0  0  0  0  0  0  0
    0.0266    1.8935   -2.6238 C   0  0  0  0  0  0  0  0  0  0  0  0
   -0.6820    2.4194   -1.3738 C   0  0  0  0  0  0  0  0  0  0  0  0
    0.0801    1.9663   -0.1269 C   0  0  0  0  0  0  0  0  0  0  0  0
    1.5071    2.5163   -0.1736 C   0  0  0  0  0  0  0  0  0  0  0  0
    2.2157    1.9904   -1.4235 C   0  0  0  0  0  0  0  0  0  0  0  0
    1.4535    2.4434   -2.6704 C   0  0  0  0  0  0  0  0  0  0  0  0
    2.2594    0.4617   -1.3798 C   0  0  0  0  0  0  0  0  0  0  0  0
    0.8325   -0.0882   -1.3332 C   0  0  0  0  0  0  0  0  0  0  0  0
    0.1239    0.4376   -0.0833 C   0  0  0  0  0  0  0  0  0  0  0  0
    0.0703    0.3648   -2.5801 C   0  0  0  0  0  0  0  0  0  0  0  0
   -0.3746    4.6144   -3.2321 O   0  0  0  0  0  0  0  0  0  0  0  0
   -4.2745   -1.8051   -9.6054 H   0  0  0  0  0  0  0  0  0  0  0  0
   -5.6327   -2.1433  -10.7051 H   0  0  0  0  0  0  0  0  0  0  0  0
   -3.9706   -2.0745  -11.3385 H   0  0  0  0  0  0  0  0  0  0  0  0
   -5.5907    1.3071  -12.1705 H   0  0  0  0  0  0  0  0  0  0  0  0
   -4.5734    1.8121  -10.0533 H   0  0  0  0  0  0  0  0  0  0  0  0
   -3.5850   -0.7204   -8.6294 H   0  0  0  0  0  0  0  0  0  0  0  0
   -3.8507    3.0208   -8.9945 H   0  0  0  0  0  0  0  0  0  0  0  0
   -2.9393    4.6691   -7.4613 H   0  0  0  0  0  0  0  0  0  0  0  0
   -1.6953    5.1982   -5.3986 H   0  0  0  0  0  0  0  0  0  0  0  0
   -1.0855    0.3575   -4.5035 H   0  0  0  0  0  0  0  0  0  0  0  0
   -2.3379   -0.1793   -6.5622 H   0  0  0  0  0  0  0  0  0  0  0  0
   -1.6986    2.0276   -1.3406 H   0  0  0  0  0  0  0  0  0  0  0  0
   -0.7132    3.5085   -1.4049 H   0  0  0  0  0  0  0  0  0  0  0  0
   -0.4247    2.3410    0.7636 H   0  0  0  0  0  0  0  0  0  0  0  0
    1.4760    3.6054   -0.2047 H   0  0  0  0  0  0  0  0  0  0  0  0
    2.0501    2.1935    0.7148 H   0  0  0  0  0  0  0  0  0  0  0  0
    3.2323    2.3822   -1.4567 H   0  0  0  0  0  0  0  0  0  0  0  0
    1.4224    3.5326   -2.7015 H   0  0  0  0  0  0  0  0  0  0  0  0
    1.9584    2.0688   -3.5609 H   0  0  0  0  0  0  0  0  0  0  0  0
    2.8024    0.1390   -0.4915 H   0  0  0  0  0  0  0  0  0  0  0  0
    2.7643    0.0871   -2.2703 H   0  0  0  0  0  0  0  0  0  0  0  0
    0.8636   -1.1773   -1.3021 H   0  0  0  0  0  0  0  0  0  0  0  0
    0.6668    0.1149    0.8051 H   0  0  0  0  0  0  0  0  0  0  0  0
   -0.8927    0.0458   -0.0500 H   0  0  0  0  0  0  0  0  0  0  0  0
    0.5751   -0.0098   -3.4706 H   0  0  0  0  0  0  0  0  0  0  0  0
   -0.9463   -0.0270   -2.5469 H   0  0  0  0  0  0  0  0  0  0  0  0
    0.5302    4.8861   -3.4385 H   0  0  0  0  0  0  0  0  0  0  0  0
   -6.2057   -0.2380  -14.2215 O   0  5  0  0  0  0  0  0  0  0  0  0
  1  2  1  0  0  0  0
  1 29  1  0  0  0  0
  1 30  1  0  0  0  0
  1 31  1  0  0  0  0
  2  3  2  0  0  0  0
  2  6  1  0  0  0  0
  3  4  1  0  0  0  0
  3 32  1  0  0  0  0
  4  5  2  0  0  0  0
  4 56  1  0  0  0  0
  6  7  2  0  0  0  0
  6 33  1  0  0  0  0
  7  8  1  0  0  0  0
  7 34  1  0  0  0  0
  8 17  2  0  0  0  0
  8  9  1  0  0  0  0
  9 10  2  0  0  0  0
  9 35  1  0  0  0  0
 10 11  1  0  0  0  0
 10 36  1  0  0  0  0
 11 16  2  0  0  0  0
 11 12  1  0  0  0  0
 12 13  2  0  0  0  0
 12 37  1  0  0  0  0
 13 14  1  0  0  0  0
 13 28  1  0  0  0  0
 14 15  2  0  0  0  0
 14 18  1  0  0  0  0
 15 16  1  0  0  0  0
 15 38  1  0  0  0  0
 16 17  1  0  0  0  0
 17 39  1  0  0  0  0
 18 23  1  0  0  0  0
 18 27  1  0  0  0  0
 18 19  1  0  0  0  0
 19 20  1  0  0  0  0
 19 40  1  0  0  0  0
 19 41  1  0  0  0  0
 20 26  1  0  0  0  0
 20 21  1  0  0  0  0
 20 42  1  0  0  0  0
 21 22  1  0  0  0  0
 21 43  1  0  0  0  0
 21 44  1  0  0  0  0
 22 23  1  0  0  0  0
 22 24  1  0  0  0  0
 22 45  1  0  0  0  0
 23 46  1  0  0  0  0
 23 47  1  0  0  0  0
 24 25  1  0  0  0  0
 24 48  1  0  0  0  0
 24 49  1  0  0  0  0
 25 26  1  0  0  0  0
 25 27  1  0  0  0  0
 25 50  1  0  0  0  0
 26 51  1  0  0  0  0
 26 52  1  0  0  0  0
 27 53  1  0  0  0  0
 27 54  1  0  0  0  0
 28 55  1  0  0  0  0
M  CHG  1  56  -1
M  END
$$$$
ZINC03824495
  -OEChem-08230709463D

 59 63  0     0  0  0  0  0  0999 V2000
    1.2081    7.1505  -10.5184 C   0  0  0  0  0  0  0  0  0  0  0  0
   -0.2362    6.7934  -10.7582 C   0  0  0  0  0  0  0  0  0  0  0  0
   -0.9040    7.3341  -11.8108 C   0  0  0  0  0  0  0  0  0  0  0  0
   -0.2823    8.3192  -12.6115 C   0  0  0  0  0  0  0  0  0  0  0  0
    0.8817    8.6161  -12.4167 O   0  0  0  0  0  0  0  0  0  0  0  0
   -0.8947    5.8980   -9.8902 C   0  0  0  0  0  0  0  0  0  0  0  0
   -0.2662    5.4469   -8.7787 C   0  0  0  0  0  0  0  0  0  0  0  0
   -0.9887    4.6030   -7.8178 C   0  0  0  0  0  0  0  0  0  0  0  0
   -2.3364    4.2654   -8.0572 C   0  0  0  0  0  0  0  0  0  0  0  0
   -3.0230    3.4885   -7.1836 C   0  0  0  0  0  0  0  0  0  0  0  0
   -2.3919    3.0068   -6.0202 C   0  0  0  0  0  0  0  0  0  0  0  0
   -3.0859    2.2016   -5.1045 C   0  0  0  0  0  0  0  0  0  0  0  0
   -2.4425    1.7458   -3.9755 C   0  0  0  0  0  0  0  0  0  0  0  0
   -1.1053    2.0767   -3.7319 C   0  0  0  0  0  0  0  0  0  0  0  0
   -0.4109    2.8592   -4.5996 C   0  0  0  0  0  0  0  0  0  0  0  0
   -1.0358    3.3382   -5.7664 C   0  0  0  0  0  0  0  0  0  0  0  0
   -0.3397    4.1430   -6.6786 C   0  0  0  0  0  0  0  0  0  0  0  0
   -0.4275    1.5638   -2.4875 C   0  0  0  0  0  0  0  0  0  0  0  0
   -1.1723    2.0759   -1.2531 C   0  0  0  0  0  0  0  0  0  0  0  0
   -0.4841    1.5552    0.0103 C   0  0  0  0  0  0  0  0  0  0  0  0
    0.9625    2.0523    0.0448 C   0  0  0  0  0  0  0  0  0  0  0  0
    1.7073    1.5401   -1.1897 C   0  0  0  0  0  0  0  0  0  0  0  0
    1.0191    2.0609   -2.4530 C   0  0  0  0  0  0  0  0  0  0  0  0
    1.6938    0.0102   -1.1952 C   0  0  0  0  0  0  0  0  0  0  0  0
    0.2472   -0.4869   -1.2297 C   0  0  0  0  0  0  0  0  0  0  0  0
   -0.4977    0.0253    0.0047 C   0  0  0  0  0  0  0  0  0  0  0  0
   -0.4410    0.0339   -2.4931 C   0  0  0  0  0  0  0  0  0  0  0  0
   -3.1136    0.9659   -3.0888 O   0  0  0  0  0  0  0  0  0  0  0  0
   -4.4765    0.6627   -3.3931 C   0  0  0  0  0  0  0  0  0  0  0  0
    1.5973    6.5552   -9.6924 H   0  0  0  0  0  0  0  0  0  0  0  0
    1.7874    6.9454  -11.4186 H   0  0  0  0  0  0  0  0  0  0  0  0
    1.2843    8.2093  -10.2706 H   0  0  0  0  0  0  0  0  0  0  0  0
   -1.9098    7.0112  -12.0356 H   0  0  0  0  0  0  0  0  0  0  0  0
   -1.9001    5.5720  -10.1119 H   0  0  0  0  0  0  0  0  0  0  0  0
    0.7663    5.7077   -8.5987 H   0  0  0  0  0  0  0  0  0  0  0  0
   -2.8279    4.6302   -8.9470 H   0  0  0  0  0  0  0  0  0  0  0  0
   -4.0551    3.2384   -7.3802 H   0  0  0  0  0  0  0  0  0  0  0  0
   -4.1183    1.9405   -5.2841 H   0  0  0  0  0  0  0  0  0  0  0  0
    0.6197    3.1101   -4.3960 H   0  0  0  0  0  0  0  0  0  0  0  0
    0.6927    4.4035   -6.4975 H   0  0  0  0  0  0  0  0  0  0  0  0
   -2.2029    1.7218   -1.2776 H   0  0  0  0  0  0  0  0  0  0  0  0
   -1.1626    3.1659   -1.2491 H   0  0  0  0  0  0  0  0  0  0  0  0
   -1.0147    1.9200    0.8897 H   0  0  0  0  0  0  0  0  0  0  0  0
    0.9722    3.1422    0.0488 H   0  0  0  0  0  0  0  0  0  0  0  0
    1.4528    1.6813    0.9448 H   0  0  0  0  0  0  0  0  0  0  0  0
    2.7379    1.8942   -1.1651 H   0  0  0  0  0  0  0  0  0  0  0  0
    1.0288    3.1508   -2.4491 H   0  0  0  0  0  0  0  0  0  0  0  0
    1.5497    1.6960   -3.3325 H   0  0  0  0  0  0  0  0  0  0  0  0
    2.1840   -0.3608   -0.2952 H   0  0  0  0  0  0  0  0  0  0  0  0
    2.2244   -0.3547   -2.0747 H   0  0  0  0  0  0  0  0  0  0  0  0
    0.2375   -1.5768   -1.2337 H   0  0  0  0  0  0  0  0  0  0  0  0
   -0.0074   -0.3457    0.9048 H   0  0  0  0  0  0  0  0  0  0  0  0
   -1.5282   -0.3288   -0.0199 H   0  0  0  0  0  0  0  0  0  0  0  0
    0.0896   -0.3310   -3.3726 H   0  0  0  0  0  0  0  0  0  0  0  0
   -1.4716   -0.3202   -2.5177 H   0  0  0  0  0  0  0  0  0  0  0  0
   -4.8935    0.0345   -2.6060 H   0  0  0  0  0  0  0  0  0  0  0  0
   -5.0483    1.5883   -3.4604 H   0  0  0  0  0  0  0  0  0  0  0  0
   -4.5273    0.1342   -4.3451 H   0  0  0  0  0  0  0  0  0  0  0  0
   -0.9797    8.9305  -13.5924 O   0  5  0  0  0  0  0  0  0  0  0  0
  1  2  1  0  0  0  0
  1 30  1  0  0  0  0
  1 31  1  0  0  0  0
  1 32  1  0  0  0  0
  2  3  2  0  0  0  0
  2  6  1  0  0  0  0
  3  4  1  0  0  0  0
  3 33  1  0  0  0  0
  4  5  2  0  0  0  0
  4 59  1  0  0  0  0
  6  7  2  0  0  0  0
  6 34  1  0  0  0  0
  7  8  1  0  0  0  0
  7 35  1  0  0  0  0
  8 17  2  0  0  0  0
  8  9  1  0  0  0  0
  9 10  2  0  0  0  0
  9 36  1  0  0  0  0
 10 11  1  0  0  0  0
 10 37  1  0  0  0  0
 11 16  2  0  0  0  0
 11 12  1  0  0  0  0
 12 13  2  0  0  0  0
 12 38  1  0  0  0  0
 13 14  1  0  0  0  0
 13 28  1  0  0  0  0
 14 15  2  0  0  0  0
 14 18  1  0  0  0  0
 15 16  1  0  0  0  0
 15 39  1  0  0  0  0
 16 17  1  0  0  0  0
 17 40  1  0  0  0  0
 18 23  1  0  0  0  0
 18 27  1  0  0  0  0
 18 19  1  0  0  0  0
 19 20  1  0  0  0  0
 19 41  1  0  0  0  0
 19 42  1  0  0  0  0
 20 26  1  0  0  0  0
 20 21  1  0  0  0  0
 20 43  1  0  0  0  0
 21 22  1  0  0  0  0
 21 44  1  0  0  0  0
 21 45  1  0  0  0  0
 22 23  1  0  0  0  0
 22 24  1  0  0  0  0
 22 46  1  0  0  0  0
 23 47  1  0  0  0  0
 23 48  1  0  0  0  0
 24 25  1  0  0  0  0
 24 49  1  0  0  0  0
 24 50  1  0  0  0  0
 25 26  1  0  0  0  0
 25 27  1  0  0  0  0
 25 51  1  0  0  0  0
 26 52  1  0  0  0  0
 26 53  1  0  0  0  0
 27 54  1  0  0  0  0
 27 55  1  0  0  0  0
 28 29  1  0  0  0  0
 29 56  1  0  0  0  0
 29 57  1  0  0  0  0
 29 58  1  0  0  0  0
M  CHG  1  59  -1
M  END
$$$$
ZINC03824681
  -OEChem-08230709463D

 59 62  0     0  0  0  0  0  0999 V2000
    9.3881    3.3194    3.3610 C   0  0  0  0  0  0  0  0  0  0  0  0
    8.9872    3.2767    1.8851 C   0  0  0  0  0  0  0  0  0  0  0  0
    7.4622    3.2258    1.7721 C   0  0  0  0  0  0  0  0  0  0  0  0
    7.0613    3.1832    0.2962 C   0  0  0  0  0  0  0  0  0  0  0  0
    5.5683    3.0107    0.1860 C   0  0  0  0  0  0  0  0  0  0  0  0
    4.7140    3.9831    0.0426 N   0  0  0  0  0  0  0  0  0  0  0  0
    3.4566    3.4810   -0.0226 C   0  0  0  0  0  0  0  0  0  0  0  0
    2.1933    4.0663   -0.1707 C   0  0  0  0  0  0  0  0  0  0  0  0
    1.0785    3.2847   -0.2031 C   0  0  0  0  0  0  0  0  0  0  0  0
    1.1823    1.8915   -0.0896 C   0  0  0  0  0  0  0  0  0  0  0  0
    2.4318    1.2933    0.0637 C   0  0  0  0  0  0  0  0  0  0  0  0
    3.5683    2.0829    0.0920 C   0  0  0  0  0  0  0  0  0  0  0  0
    4.9182    1.8183    0.2226 N   0  0  0  0  0  0  0  0  0  0  0  0
    5.5340    0.4976    0.3731 C   0  0  0  0  0  0  0  0  0  0  0  0
    5.9216   -0.0334   -0.9829 C   0  0  0  0  0  0  0  0  0  0  0  0
    4.9785   -0.6737   -1.7672 C   0  0  0  0  0  0  0  0  0  0  0  0
    5.3253   -1.1578   -3.0114 C   0  0  0  0  0  0  0  0  0  0  0  0
    6.6342   -1.0100   -3.4745 C   0  0  0  0  0  0  0  0  0  0  0  0
    7.5823   -0.3675   -2.6757 C   0  0  0  0  0  0  0  0  0  0  0  0
    7.2205    0.1165   -1.4357 C   0  0  0  0  0  0  0  0  0  0  0  0
    7.0142   -1.5305   -4.8038 C   0  0  0  0  0  0  0  0  0  0  0  0
    8.1536   -1.4000   -5.2041 O   0  0  0  0  0  0  0  0  0  0  0  0
   -0.0345    1.0567   -0.1264 C   0  0  0  0  0  0  0  0  0  0  0  0
   -0.0902    0.0341    0.5290 O   0  0  0  0  0  0  0  0  0  0  0  0
   -1.0816    1.4251   -0.8907 N   0  0  0  0  0  0  0  0  0  0  0  0
   -0.9888    2.5959   -1.7734 C   0  0  0  0  0  0  0  0  0  0  0  0
   -1.3780    2.1671   -3.1963 C   0  0  0  0  0  0  0  0  0  0  0  0
   -2.7607    1.5119   -3.1652 C   0  0  0  0  0  0  0  0  0  0  0  0
   -2.7156    0.2632   -2.2815 C   0  0  0  0  0  0  0  0  0  0  0  0
   -2.3397    0.6672   -0.8524 C   0  0  0  0  0  0  0  0  0  0  0  0
   10.4745    3.3556    3.4415 H   0  0  0  0  0  0  0  0  0  0  0  0
    8.9594    4.2058    3.8285 H   0  0  0  0  0  0  0  0  0  0  0  0
    9.0160    2.4271    3.8645 H   0  0  0  0  0  0  0  0  0  0  0  0
    9.4159    2.3903    1.4176 H   0  0  0  0  0  0  0  0  0  0  0  0
    9.3593    4.1690    1.3816 H   0  0  0  0  0  0  0  0  0  0  0  0
    7.0335    4.1123    2.2396 H   0  0  0  0  0  0  0  0  0  0  0  0
    7.0901    2.3336    2.2756 H   0  0  0  0  0  0  0  0  0  0  0  0
    7.5607    2.3463   -0.1919 H   0  0  0  0  0  0  0  0  0  0  0  0
    7.3562    4.1144   -0.1875 H   0  0  0  0  0  0  0  0  0  0  0  0
    2.1028    5.1388   -0.2590 H   0  0  0  0  0  0  0  0  0  0  0  0
    0.1068    3.7420   -0.3176 H   0  0  0  0  0  0  0  0  0  0  0  0
    2.5131    0.2203    0.1557 H   0  0  0  0  0  0  0  0  0  0  0  0
    6.4228    0.5802    0.9986 H   0  0  0  0  0  0  0  0  0  0  0  0
    4.8229   -0.1837    0.8404 H   0  0  0  0  0  0  0  0  0  0  0  0
    3.9674   -0.7909   -1.4061 H   0  0  0  0  0  0  0  0  0  0  0  0
    4.5870   -1.6534   -3.6245 H   0  0  0  0  0  0  0  0  0  0  0  0
    8.5964   -0.2496   -3.0280 H   0  0  0  0  0  0  0  0  0  0  0  0
    7.9527    0.6139   -0.8169 H   0  0  0  0  0  0  0  0  0  0  0  0
   -1.6695    3.3721   -1.4237 H   0  0  0  0  0  0  0  0  0  0  0  0
    0.0331    2.9752   -1.7712 H   0  0  0  0  0  0  0  0  0  0  0  0
   -0.6463    1.4546   -3.5771 H   0  0  0  0  0  0  0  0  0  0  0  0
   -1.4050    3.0430   -3.8445 H   0  0  0  0  0  0  0  0  0  0  0  0
   -3.0520    1.2303   -4.1771 H   0  0  0  0  0  0  0  0  0  0  0  0
   -3.4875    2.2166   -2.7612 H   0  0  0  0  0  0  0  0  0  0  0  0
   -1.9713   -0.4314   -2.6710 H   0  0  0  0  0  0  0  0  0  0  0  0
   -3.6946   -0.2160   -2.2786 H   0  0  0  0  0  0  0  0  0  0  0  0
   -2.2094   -0.2267   -0.2424 H   0  0  0  0  0  0  0  0  0  0  0  0
   -3.1283    1.2892   -0.4292 H   0  0  0  0  0  0  0  0  0  0  0  0
    6.0972   -2.1498   -5.5720 O   0  5  0  0  0  0  0  0  0  0  0  0
  1  2  1  0  0  0  0
  1 31  1  0  0  0  0
  1 32  1  0  0  0  0
  1 33  1  0  0  0  0
  2  3  1  0  0  0  0
  2 34  1  0  0  0  0
  2 35  1  0  0  0  0
  3  4  1  0  0  0  0
  3 36  1  0  0  0  0
  3 37  1  0  0  0  0
  4  5  1  0  0  0  0
  4 38  1  0  0  0  0
  4 39  1  0  0  0  0
  5 13  1  0  0  0  0
  5  6  2  0  0  0  0
  6  7  1  0  0  0  0
  7 12  2  0  0  0  0
  7  8  1  0  0  0  0
  8  9  2  0  0  0  0
  8 40  1  0  0  0  0
  9 10  1  0  0  0  0
  9 41  1  0  0  0  0
 10 11  2  0  0  0  0
 10 23  1  0  0  0  0
 11 12  1  0  0  0  0
 11 42  1  0  0  0  0
 12 13  1  0  0  0  0
 13 14  1  0  0  0  0
 14 15  1  0  0  0  0
 14 43  1  0  0  0  0
 14 44  1  0  0  0  0
 15 20  2  0  0  0  0
 15 16  1  0  0  0  0
 16 17  2  0  0  0  0
 16 45  1  0  0  0  0
 17 18  1  0  0  0  0
 17 46  1  0  0  0  0
 18 19  2  0  0  0  0
 18 21  1  0  0  0  0
 19 20  1  0  0  0  0
 19 47  1  0  0  0  0
 20 48  1  0  0  0  0
 21 22  2  0  0  0  0
 21 59  1  0  0  0  0
 23 24  2  0  0  0  0
 23 25  1  0  0  0  0
 25 30  1  0  0  0  0
 25 26  1  0  0  0  0
 26 27  1  0  0  0  0
 26 49  1  0  0  0  0
 26 50  1  0  0  0  0
 27 28  1  0  0  0  0
 27 51  1  0  0  0  0
 27 52  1  0  0  0  0
 28 29  1  0  0  0  0
 28 53  1  0  0  0  0
 28 54  1  0  0  0  0
 29 30  1  0  0  0  0
 29 55  1  0  0  0  0
 29 56  1  0  0  0  0
 30 57  1  0  0  0  0
 30 58  1  0  0  0  0
M  CHG  1  59  -1
M  END
$$$$
ZINC03824681
  -OEChem-08230709463D

 60 63  0     0  0  0  0  0  0999 V2000
    9.3881    3.3194    3.3610 C   0  0  0  0  0  0  0  0  0  0  0  0
    8.9872    3.2767    1.8851 C   0  0  0  0  0  0  0  0  0  0  0  0
    7.4622    3.2258    1.7721 C   0  0  0  0  0  0  0  0  0  0  0  0
    7.0613    3.1832    0.2962 C   0  0  0  0  0  0  0  0  0  0  0  0
    5.5683    3.0107    0.1860 C   0  0  0  0  0  0  0  0  0  0  0  0
    3.4566    3.4810   -0.0226 C   0  0  0  0  0  0  0  0  0  0  0  0
    2.1933    4.0663   -0.1707 C   0  0  0  0  0  0  0  0  0  0  0  0
    1.0785    3.2847   -0.2031 C   0  0  0  0  0  0  0  0  0  0  0  0
    1.1823    1.8915   -0.0896 C   0  0  0  0  0  0  0  0  0  0  0  0
    2.4318    1.2933    0.0637 C   0  0  0  0  0  0  0  0  0  0  0  0
    3.5683    2.0829    0.0920 C   0  0  0  0  0  0  0  0  0  0  0  0
    4.9182    1.8183    0.2226 N   0  0  0  0  0  0  0  0  0  0  0  0
    5.5340    0.4976    0.3731 C   0  0  0  0  0  0  0  0  0  0  0  0
    5.9216   -0.0334   -0.9829 C   0  0  0  0  0  0  0  0  0  0  0  0
    4.9785   -0.6737   -1.7672 C   0  0  0  0  0  0  0  0  0  0  0  0
    5.3253   -1.1578   -3.0114 C   0  0  0  0  0  0  0  0  0  0  0  0
    6.6342   -1.0100   -3.4745 C   0  0  0  0  0  0  0  0  0  0  0  0
    7.5823   -0.3675   -2.6757 C   0  0  0  0  0  0  0  0  0  0  0  0
    7.2205    0.1165   -1.4357 C   0  0  0  0  0  0  0  0  0  0  0  0
    7.0142   -1.5305   -4.8038 C   0  0  0  0  0  0  0  0  0  0  0  0
    8.1536   -1.4000   -5.2041 O   0  0  0  0  0  0  0  0  0  0  0  0
   -0.0345    1.0567   -0.1264 C   0  0  0  0  0  0  0  0  0  0  0  0
   -0.0902    0.0341    0.5290 O   0  0  0  0  0  0  0  0  0  0  0  0
   -1.0816    1.4251   -0.8907 N   0  0  0  0  0  0  0  0  0  0  0  0
   -0.9888    2.5959   -1.7734 C   0  0  0  0  0  0  0  0  0  0  0  0
   -1.3780    2.1671   -3.1963 C   0  0  0  0  0  0  0  0  0  0  0  0
   -2.7607    1.5119   -3.1652 C   0  0  0  0  0  0  0  0  0  0  0  0
   -2.7156    0.2632   -2.2815 C   0  0  0  0  0  0  0  0  0  0  0  0
   -2.3397    0.6672   -0.8524 C   0  0  0  0  0  0  0  0  0  0  0  0
   10.4745    3.3556    3.4415 H   0  0  0  0  0  0  0  0  0  0  0  0
    8.9594    4.2058    3.8285 H   0  0  0  0  0  0  0  0  0  0  0  0
    9.0160    2.4271    3.8645 H   0  0  0  0  0  0  0  0  0  0  0  0
    9.4159    2.3903    1.4176 H   0  0  0  0  0  0  0  0  0  0  0  0
    9.3593    4.1690    1.3816 H   0  0  0  0  0  0  0  0  0  0  0  0
    7.0335    4.1123    2.2396 H   0  0  0  0  0  0  0  0  0  0  0  0
    7.0901    2.3336    2.2756 H   0  0  0  0  0  0  0  0  0  0  0  0
    7.5607    2.3463   -0.1919 H   0  0  0  0  0  0  0  0  0  0  0  0
    7.3562    4.1144   -0.1875 H   0  0  0  0  0  0  0  0  0  0  0  0
    2.1028    5.1388   -0.2590 H   0  0  0  0  0  0  0  0  0  0  0  0
    0.1068    3.7420   -0.3176 H   0  0  0  0  0  0  0  0  0  0  0  0
    2.5131    0.2203    0.1557 H   0  0  0  0  0  0  0  0  0  0  0  0
    6.4228    0.5802    0.9986 H   0  0  0  0  0  0  0  0  0  0  0  0
    4.8229   -0.1837    0.8404 H   0  0  0  0  0  0  0  0  0  0  0  0
    3.9674   -0.7909   -1.4061 H   0  0  0  0  0  0  0  0  0  0  0  0
    4.5870   -1.6534   -3.6245 H   0  0  0  0  0  0  0  0  0  0  0  0
    8.5964   -0.2496   -3.0280 H   0  0  0  0  0  0  0  0  0  0  0  0
    7.9527    0.6139   -0.8169 H   0  0  0  0  0  0  0  0  0  0  0  0
   -1.6695    3.3721   -1.4237 H   0  0  0  0  0  0  0  0  0  0  0  0
    0.0331    2.9752   -1.7712 H   0  0  0  0  0  0  0  0  0  0  0  0
   -0.6463    1.4546   -3.5771 H   0  0  0  0  0  0  0  0  0  0  0  0
   -1.4050    3.0430   -3.8445 H   0  0  0  0  0  0  0  0  0  0  0  0
   -3.0520    1.2303   -4.1771 H   0  0  0  0  0  0  0  0  0  0  0  0
   -3.4875    2.2166   -2.7612 H   0  0  0  0  0  0  0  0  0  0  0  0
   -1.9713   -0.4314   -2.6710 H   0  0  0  0  0  0  0  0  0  0  0  0
   -3.6946   -0.2160   -2.2786 H   0  0  0  0  0  0  0  0  0  0  0  0
   -2.2094   -0.2267   -0.2424 H   0  0  0  0  0  0  0  0  0  0  0  0
   -3.1283    1.2892   -0.4292 H   0  0  0  0  0  0  0  0  0  0  0  0
    6.0972   -2.1498   -5.5720 O   0  5  0  0  0  0  0  0  0  0  0  0
    4.7144    3.9845    0.0425 N   0  3  0  0  0  0  0  0  0  0  0  0
    4.9566    4.9808   -0.0128 H   0  0  0  0  0  0  0  0  0  0  0  0
  1  2  1  0  0  0  0
  1 30  1  0  0  0  0
  1 31  1  0  0  0  0
  1 32  1  0  0  0  0
  2  3  1  0  0  0  0
  2 33  1  0  0  0  0
  2 34  1  0  0  0  0
  3  4  1  0  0  0  0
  3 35  1  0  0  0  0
  3 36  1  0  0  0  0
  4  5  1  0  0  0  0
  4 37  1  0  0  0  0
  4 38  1  0  0  0  0
  5 12  1  0  0  0  0
  5 59  2  0  0  0  0
  6 11  2  0  0  0  0
  6  7  1  0  0  0  0
  6 59  1  0  0  0  0
  7  8  2  0  0  0  0
  7 39  1  0  0  0  0
  8  9  1  0  0  0  0
  8 40  1  0  0  0  0
  9 10  2  0  0  0  0
  9 22  1  0  0  0  0
 10 11  1  0  0  0  0
 10 41  1  0  0  0  0
 11 12  1  0  0  0  0
 12 13  1  0  0  0  0
 13 14  1  0  0  0  0
 13 42  1  0  0  0  0
 13 43  1  0  0  0  0
 14 19  2  0  0  0  0
 14 15  1  0  0  0  0
 15 16  2  0  0  0  0
 15 44  1  0  0  0  0
 16 17  1  0  0  0  0
 16 45  1  0  0  0  0
 17 18  2  0  0  0  0
 17 20  1  0  0  0  0
 18 19  1  0  0  0  0
 18 46  1  0  0  0  0
 19 47  1  0  0  0  0
 20 21  2  0  0  0  0
 20 58  1  0  0  0  0
 22 23  2  0  0  0  0
 22 24  1  0  0  0  0
 24 29  1  0  0  0  0
 24 25  1  0  0  0  0
 25 26  1  0  0  0  0
 25 48  1  0  0  0  0
 25 49  1  0  0  0  0
 26 27  1  0  0  0  0
 26 50  1  0  0  0  0
 26 51  1  0  0  0  0
 27 28  1  0  0  0  0
 27 52  1  0  0  0  0
 27 53  1  0  0  0  0
 28 29  1  0  0  0  0
 28 54  1  0  0  0  0
 28 55  1  0  0  0  0
 29 56  1  0  0  0  0
 29 57  1  0  0  0  0
 59 60  1  0  0  0  0
M  CHG  2  58  -1  59   1
M  END
$$$$
ZINC03824682
  -OEChem-08230709463D

 53 56  0     0  0  0  0  0  0999 V2000
    8.5081    1.2575    2.7485 C   0  0  0  0  0  0  0  0  0  0  0  0
    7.9978    1.1279    1.3119 C   0  0  0  0  0  0  0  0  0  0  0  0
    6.4699    1.0484    1.3187 C   0  0  0  0  0  0  0  0  0  0  0  0
    5.9596    0.9188   -0.1179 C   0  0  0  0  0  0  0  0  0  0  0  0
    4.4547    0.8406   -0.1113 C   0  0  0  0  0  0  0  0  0  0  0  0
    3.6545    1.8654   -0.1837 N   0  0  0  0  0  0  0  0  0  0  0  0
    2.3668    1.4431   -0.1519 C   0  0  0  0  0  0  0  0  0  0  0  0
    1.1351    2.1072   -0.1980 C   0  0  0  0  0  0  0  0  0  0  0  0
   -0.0257    1.3969   -0.1457 C   0  0  0  0  0  0  0  0  0  0  0  0
   -0.0010   -0.0010   -0.0457 C   0  0  0  0  0  0  0  0  0  0  0  0
    1.2167   -0.6775    0.0013 C   0  0  0  0  0  0  0  0  0  0  0  0
    2.3992    0.0399   -0.0515 C   0  0  0  0  0  0  0  0  0  0  0  0
    3.7360   -0.3093   -0.0280 N   0  0  0  0  0  0  0  0  0  0  0  0
    4.2776   -1.6670    0.0693 C   0  0  0  0  0  0  0  0  0  0  0  0
    4.4619   -2.2347   -1.3145 C   0  0  0  0  0  0  0  0  0  0  0  0
    3.4331   -2.9415   -1.9116 C   0  0  0  0  0  0  0  0  0  0  0  0
    3.5934   -3.4596   -3.1800 C   0  0  0  0  0  0  0  0  0  0  0  0
    4.8010   -3.2787   -3.8570 C   0  0  0  0  0  0  0  0  0  0  0  0
    5.8369   -2.5690   -3.2464 C   0  0  0  0  0  0  0  0  0  0  0  0
    5.6613   -2.0517   -1.9798 C   0  0  0  0  0  0  0  0  0  0  0  0
    4.9817   -3.8352   -5.2135 C   0  0  0  0  0  0  0  0  0  0  0  0
    6.0333   -3.6758   -5.8002 O   0  0  0  0  0  0  0  0  0  0  0  0
   -1.2669   -0.7580    0.0106 C   0  0  0  0  0  0  0  0  0  0  0  0
   -1.2522   -1.9724   -0.0486 O   0  0  0  0  0  0  0  0  0  0  0  0
   -2.4391   -0.1032    0.1274 N   0  0  0  0  0  0  0  0  0  0  0  0
   -2.8655    1.3033    0.1814 C   0  0  0  0  0  0  0  0  0  0  0  0
   -4.0823    0.8495    0.9949 C   0  0  0  0  0  0  0  0  0  0  0  0
   -3.8539   -0.4806    0.2637 C   0  0  0  0  0  0  0  0  0  0  0  0
    8.1920    0.3888    3.3261 H   0  0  0  0  0  0  0  0  0  0  0  0
    9.5967    1.3141    2.7437 H   0  0  0  0  0  0  0  0  0  0  0  0
    8.0993    2.1619    3.1991 H   0  0  0  0  0  0  0  0  0  0  0  0
    8.4067    0.2235    0.8613 H   0  0  0  0  0  0  0  0  0  0  0  0
    8.3139    1.9965    0.7343 H   0  0  0  0  0  0  0  0  0  0  0  0
    6.0611    1.9528    1.7693 H   0  0  0  0  0  0  0  0  0  0  0  0
    6.1538    0.1798    1.8963 H   0  0  0  0  0  0  0  0  0  0  0  0
    6.3685    0.0145   -0.5685 H   0  0  0  0  0  0  0  0  0  0  0  0
    6.2757    1.7875   -0.6955 H   0  0  0  0  0  0  0  0  0  0  0  0
    1.1055    3.1840   -0.2755 H   0  0  0  0  0  0  0  0  0  0  0  0
   -0.9728    1.9144   -0.1862 H   0  0  0  0  0  0  0  0  0  0  0  0
    1.2374   -1.7545    0.0788 H   0  0  0  0  0  0  0  0  0  0  0  0
    5.2393   -1.6388    0.5815 H   0  0  0  0  0  0  0  0  0  0  0  0
    3.5854   -2.2949    0.6303 H   0  0  0  0  0  0  0  0  0  0  0  0
    2.5010   -3.0842   -1.3851 H   0  0  0  0  0  0  0  0  0  0  0  0
    2.7880   -4.0072   -3.6467 H   0  0  0  0  0  0  0  0  0  0  0  0
    6.7734   -2.4252   -3.7648 H   0  0  0  0  0  0  0  0  0  0  0  0
    6.4616   -1.5023   -1.5064 H   0  0  0  0  0  0  0  0  0  0  0  0
   -2.1838    1.9423    0.7426 H   0  0  0  0  0  0  0  0  0  0  0  0
   -3.1245    1.7160   -0.7936 H   0  0  0  0  0  0  0  0  0  0  0  0
   -5.0126    1.3516    0.7292 H   0  0  0  0  0  0  0  0  0  0  0  0
   -3.9058    0.8048    2.0696 H   0  0  0  0  0  0  0  0  0  0  0  0
   -4.3789   -0.5479   -0.6892 H   0  0  0  0  0  0  0  0  0  0  0  0
   -4.0110   -1.3554    0.8947 H   0  0  0  0  0  0  0  0  0  0  0  0
    3.9803   -4.5194   -5.7998 O   0  5  0  0  0  0  0  0  0  0  0  0
  1  2  1  0  0  0  0
  1 29  1  0  0  0  0
  1 30  1  0  0  0  0
  1 31  1  0  0  0  0
  2  3  1  0  0  0  0
  2 32  1  0  0  0  0
  2 33  1  0  0  0  0
  3  4  1  0  0  0  0
  3 34  1  0  0  0  0
  3 35  1  0  0  0  0
  4  5  1  0  0  0  0
  4 36  1  0  0  0  0
  4 37  1  0  0  0  0
  5 13  1  0  0  0  0
  5  6  2  0  0  0  0
  6  7  1  0  0  0  0
  7 12  2  0  0  0  0
  7  8  1  0  0  0  0
  8  9  2  0  0  0  0
  8 38  1  0  0  0  0
  9 10  1  0  0  0  0
  9 39  1  0  0  0  0
 10 11  2  0  0  0  0
 10 23  1  0  0  0  0
 11 12  1  0  0  0  0
 11 40  1  0  0  0  0
 12 13  1  0  0  0  0
 13 14  1  0  0  0  0
 14 15  1  0  0  0  0
 14 41  1  0  0  0  0
 14 42  1  0  0  0  0
 15 20  2  0  0  0  0
 15 16  1  0  0  0  0
 16 17  2  0  0  0  0
 16 43  1  0  0  0  0
 17 18  1  0  0  0  0
 17 44  1  0  0  0  0
 18 19  2  0  0  0  0
 18 21  1  0  0  0  0
 19 20  1  0  0  0  0
 19 45  1  0  0  0  0
 20 46  1  0  0  0  0
 21 22  2  0  0  0  0
 21 53  1  0  0  0  0
 23 24  2  0  0  0  0
 23 25  1  0  0  0  0
 25 28  1  0  0  0  0
 25 26  1  0  0  0  0
 26 27  1  0  0  0  0
 26 47  1  0  0  0  0
 26 48  1  0  0  0  0
 27 28  1  0  0  0  0
 27 49  1  0  0  0  0
 27 50  1  0  0  0  0
 28 51  1  0  0  0  0
 28 52  1  0  0  0  0
M  CHG  1  53  -1
M  END
$$$$
ZINC03824682
  -OEChem-08230709463D

 54 57  0     0  0  0  0  0  0999 V2000
    8.5081    1.2575    2.7485 C   0  0  0  0  0  0  0  0  0  0  0  0
    7.9978    1.1279    1.3119 C   0  0  0  0  0  0  0  0  0  0  0  0
    6.4699    1.0484    1.3187 C   0  0  0  0  0  0  0  0  0  0  0  0
    5.9596    0.9188   -0.1179 C   0  0  0  0  0  0  0  0  0  0  0  0
    4.4547    0.8406   -0.1113 C   0  0  0  0  0  0  0  0  0  0  0  0
    2.3668    1.4431   -0.1519 C   0  0  0  0  0  0  0  0  0  0  0  0
    1.1351    2.1072   -0.1980 C   0  0  0  0  0  0  0  0  0  0  0  0
   -0.0257    1.3969   -0.1457 C   0  0  0  0  0  0  0  0  0  0  0  0
   -0.0010   -0.0010   -0.0457 C   0  0  0  0  0  0  0  0  0  0  0  0
    1.2167   -0.6775    0.0013 C   0  0  0  0  0  0  0  0  0  0  0  0
    2.3992    0.0399   -0.0515 C   0  0  0  0  0  0  0  0  0  0  0  0
    3.7360   -0.3093   -0.0280 N   0  0  0  0  0  0  0  0  0  0  0  0
    4.2776   -1.6670    0.0693 C   0  0  0  0  0  0  0  0  0  0  0  0
    4.4619   -2.2347   -1.3145 C   0  0  0  0  0  0  0  0  0  0  0  0
    3.4331   -2.9415   -1.9116 C   0  0  0  0  0  0  0  0  0  0  0  0
    3.5934   -3.4596   -3.1800 C   0  0  0  0  0  0  0  0  0  0  0  0
    4.8010   -3.2787   -3.8570 C   0  0  0  0  0  0  0  0  0  0  0  0
    5.8369   -2.5690   -3.2464 C   0  0  0  0  0  0  0  0  0  0  0  0
    5.6613   -2.0517   -1.9798 C   0  0  0  0  0  0  0  0  0  0  0  0
    4.9817   -3.8352   -5.2135 C   0  0  0  0  0  0  0  0  0  0  0  0
    6.0333   -3.6758   -5.8002 O   0  0  0  0  0  0  0  0  0  0  0  0
   -1.2669   -0.7580    0.0106 C   0  0  0  0  0  0  0  0  0  0  0  0
   -1.2522   -1.9724   -0.0486 O   0  0  0  0  0  0  0  0  0  0  0  0
   -2.4391   -0.1032    0.1274 N   0  0  0  0  0  0  0  0  0  0  0  0
   -2.8655    1.3033    0.1814 C   0  0  0  0  0  0  0  0  0  0  0  0
   -4.0823    0.8495    0.9949 C   0  0  0  0  0  0  0  0  0  0  0  0
   -3.8539   -0.4806    0.2637 C   0  0  0  0  0  0  0  0  0  0  0  0
    8.1920    0.3888    3.3261 H   0  0  0  0  0  0  0  0  0  0  0  0
    9.5967    1.3141    2.7437 H   0  0  0  0  0  0  0  0  0  0  0  0
    8.0993    2.1619    3.1991 H   0  0  0  0  0  0  0  0  0  0  0  0
    8.4067    0.2235    0.8613 H   0  0  0  0  0  0  0  0  0  0  0  0
    8.3139    1.9965    0.7343 H   0  0  0  0  0  0  0  0  0  0  0  0
    6.0611    1.9528    1.7693 H   0  0  0  0  0  0  0  0  0  0  0  0
    6.1538    0.1798    1.8963 H   0  0  0  0  0  0  0  0  0  0  0  0
    6.3685    0.0145   -0.5685 H   0  0  0  0  0  0  0  0  0  0  0  0
    6.2757    1.7875   -0.6955 H   0  0  0  0  0  0  0  0  0  0  0  0
    1.1055    3.1840   -0.2755 H   0  0  0  0  0  0  0  0  0  0  0  0
   -0.9728    1.9144   -0.1862 H   0  0  0  0  0  0  0  0  0  0  0  0
    1.2374   -1.7545    0.0788 H   0  0  0  0  0  0  0  0  0  0  0  0
    5.2393   -1.6388    0.5815 H   0  0  0  0  0  0  0  0  0  0  0  0
    3.5854   -2.2949    0.6303 H   0  0  0  0  0  0  0  0  0  0  0  0
    2.5010   -3.0842   -1.3851 H   0  0  0  0  0  0  0  0  0  0  0  0
    2.7880   -4.0072   -3.6467 H   0  0  0  0  0  0  0  0  0  0  0  0
    6.7734   -2.4252   -3.7648 H   0  0  0  0  0  0  0  0  0  0  0  0
    6.4616   -1.5023   -1.5064 H   0  0  0  0  0  0  0  0  0  0  0  0
   -2.1838    1.9423    0.7426 H   0  0  0  0  0  0  0  0  0  0  0  0
   -3.1245    1.7160   -0.7936 H   0  0  0  0  0  0  0  0  0  0  0  0
   -5.0126    1.3516    0.7292 H   0  0  0  0  0  0  0  0  0  0  0  0
   -3.9058    0.8048    2.0696 H   0  0  0  0  0  0  0  0  0  0  0  0
   -4.3789   -0.5479   -0.6892 H   0  0  0  0  0  0  0  0  0  0  0  0
   -4.0110   -1.3554    0.8947 H   0  0  0  0  0  0  0  0  0  0  0  0
    3.9803   -4.5194   -5.7998 O   0  5  0  0  0  0  0  0  0  0  0  0
    3.6550    1.8668   -0.1838 N   0  3  0  0  0  0  0  0  0  0  0  0
    3.9541    2.8465   -0.2543 H   0  0  0  0  0  0  0  0  0  0  0  0
  1  2  1  0  0  0  0
  1 28  1  0  0  0  0
  1 29  1  0  0  0  0
  1 30  1  0  0  0  0
  2  3  1  0  0  0  0
  2 31  1  0  0  0  0
  2 32  1  0  0  0  0
  3  4  1  0  0  0  0
  3 33  1  0  0  0  0
  3 34  1  0  0  0  0
  4  5  1  0  0  0  0
  4 35  1  0  0  0  0
  4 36  1  0  0  0  0
  5 12  1  0  0  0  0
  5 53  2  0  0  0  0
  6 11  2  0  0  0  0
  6  7  1  0  0  0  0
  6 53  1  0  0  0  0
  7  8  2  0  0  0  0
  7 37  1  0  0  0  0
  8  9  1  0  0  0  0
  8 38  1  0  0  0  0
  9 10  2  0  0  0  0
  9 22  1  0  0  0  0
 10 11  1  0  0  0  0
 10 39  1  0  0  0  0
 11 12  1  0  0  0  0
 12 13  1  0  0  0  0
 13 14  1  0  0  0  0
 13 40  1  0  0  0  0
 13 41  1  0  0  0  0
 14 19  2  0  0  0  0
 14 15  1  0  0  0  0
 15 16  2  0  0  0  0
 15 42  1  0  0  0  0
 16 17  1  0  0  0  0
 16 43  1  0  0  0  0
 17 18  2  0  0  0  0
 17 20  1  0  0  0  0
 18 19  1  0  0  0  0
 18 44  1  0  0  0  0
 19 45  1  0  0  0  0
 20 21  2  0  0  0  0
 20 52  1  0  0  0  0
 22 23  2  0  0  0  0
 22 24  1  0  0  0  0
 24 27  1  0  0  0  0
 24 25  1  0  0  0  0
 25 26  1  0  0  0  0
 25 46  1  0  0  0  0
 25 47  1  0  0  0  0
 26 27  1  0  0  0  0
 26 48  1  0  0  0  0
 26 49  1  0  0  0  0
 27 50  1  0  0  0  0
 27 51  1  0  0  0  0
 53 54  1  0  0  0  0
M  CHG  2  52  -1  53   1
M  END
$$$$
ZINC03824683
  -OEChem-08230709463D

 56 59  0     0  0  0  0  0  0999 V2000
    4.7705    1.9268    1.1466 C   0  0  0  0  0  0  0  0  0  0  0  0
    4.3135    0.4681    1.2106 C   0  0  0  0  0  0  0  0  0  0  0  0
    2.8670    0.4081    1.7057 C   0  0  0  0  0  0  0  0  0  0  0  0
    2.4100   -1.0507    1.7697 C   0  0  0  0  0  0  0  0  0  0  0  0
    0.9621   -1.1058    2.1840 C   0  0  0  0  0  0  0  0  0  0  0  0
    0.5389   -1.1162    3.4155 N   0  0  0  0  0  0  0  0  0  0  0  0
   -0.8153   -1.1749    3.4330 C   0  0  0  0  0  0  0  0  0  0  0  0
   -1.7634   -1.2141    4.4625 C   0  0  0  0  0  0  0  0  0  0  0  0
   -3.0912   -1.2728    4.1657 C   0  0  0  0  0  0  0  0  0  0  0  0
   -3.5223   -1.2944    2.8321 C   0  0  0  0  0  0  0  0  0  0  0  0
   -2.5915   -1.2560    1.7954 C   0  0  0  0  0  0  0  0  0  0  0  0
   -1.2408   -1.1964    2.0919 C   0  0  0  0  0  0  0  0  0  0  0  0
   -0.0911   -1.1482    1.3269 N   0  0  0  0  0  0  0  0  0  0  0  0
   -0.0206   -1.1493   -0.1364 C   0  0  0  0  0  0  0  0  0  0  0  0
   -0.0085   -2.5704   -0.6378 C   0  0  0  0  0  0  0  0  0  0  0  0
    1.1959   -3.1925   -0.9151 C   0  0  0  0  0  0  0  0  0  0  0  0
    1.2145   -4.4948   -1.3697 C   0  0  0  0  0  0  0  0  0  0  0  0
    0.0138   -5.1816   -1.5599 C   0  0  0  0  0  0  0  0  0  0  0  0
   -1.1982   -4.5459   -1.2831 C   0  0  0  0  0  0  0  0  0  0  0  0
   -1.2020   -3.2451   -0.8241 C   0  0  0  0  0  0  0  0  0  0  0  0
    0.0258   -6.5747   -2.0514 C   0  0  0  0  0  0  0  0  0  0  0  0
   -1.0204   -7.1698   -2.2155 O   0  0  0  0  0  0  0  0  0  0  0  0
   -4.9647   -1.3576    2.5251 C   0  0  0  0  0  0  0  0  0  0  0  0
   -5.3482   -1.2313    1.3783 O   0  0  0  0  0  0  0  0  0  0  0  0
   -5.8565   -1.5553    3.5161 N   0  0  0  0  0  0  0  0  0  0  0  0
   -5.5431   -1.6175    4.9511 C   0  0  0  0  0  0  0  0  0  0  0  0
   -6.8670   -1.8827    5.6983 C   0  0  0  0  0  0  0  0  0  0  0  0
   -7.7587   -2.5257    4.6034 C   0  0  0  0  0  0  0  0  0  0  0  0
   -7.3071   -1.7513    3.3401 C   0  0  0  0  0  0  0  0  0  0  0  0
    5.8009    1.9696    0.7939 H   0  0  0  0  0  0  0  0  0  0  0  0
    4.1284    2.4789    0.4603 H   0  0  0  0  0  0  0  0  0  0  0  0
    4.7076    2.3712    2.1399 H   0  0  0  0  0  0  0  0  0  0  0  0
    4.9556   -0.0840    1.8969 H   0  0  0  0  0  0  0  0  0  0  0  0
    4.3763    0.0237    0.2173 H   0  0  0  0  0  0  0  0  0  0  0  0
    2.2249    0.9602    1.0194 H   0  0  0  0  0  0  0  0  0  0  0  0
    2.8042    0.8525    2.6990 H   0  0  0  0  0  0  0  0  0  0  0  0
    3.0168   -1.5899    2.4971 H   0  0  0  0  0  0  0  0  0  0  0  0
    2.5249   -1.5109    0.7883 H   0  0  0  0  0  0  0  0  0  0  0  0
   -1.4413   -1.1982    5.4933 H   0  0  0  0  0  0  0  0  0  0  0  0
   -3.8179   -1.3024    4.9642 H   0  0  0  0  0  0  0  0  0  0  0  0
   -2.9221   -1.2723    0.7674 H   0  0  0  0  0  0  0  0  0  0  0  0
    0.8901   -0.6432   -0.4567 H   0  0  0  0  0  0  0  0  0  0  0  0
   -0.8878   -0.6282   -0.5423 H   0  0  0  0  0  0  0  0  0  0  0  0
    2.1237   -2.6587   -0.7714 H   0  0  0  0  0  0  0  0  0  0  0  0
    2.1555   -4.9807   -1.5815 H   0  0  0  0  0  0  0  0  0  0  0  0
   -2.1304   -5.0716   -1.4278 H   0  0  0  0  0  0  0  0  0  0  0  0
   -2.1387   -2.7524   -0.6092 H   0  0  0  0  0  0  0  0  0  0  0  0
   -4.8389   -2.4273    5.1420 H   0  0  0  0  0  0  0  0  0  0  0  0
   -5.1181   -0.6689    5.2792 H   0  0  0  0  0  0  0  0  0  0  0  0
   -7.3060   -0.9510    6.0552 H   0  0  0  0  0  0  0  0  0  0  0  0
   -6.7115   -2.5757    6.5252 H   0  0  0  0  0  0  0  0  0  0  0  0
   -8.8153   -2.3545    4.8097 H   0  0  0  0  0  0  0  0  0  0  0  0
   -7.5492   -3.5908    4.5046 H   0  0  0  0  0  0  0  0  0  0  0  0
   -7.8157   -0.7890    3.2829 H   0  0  0  0  0  0  0  0  0  0  0  0
   -7.5044   -2.3395    2.4438 H   0  0  0  0  0  0  0  0  0  0  0  0
    1.1968   -7.1850   -2.3175 O   0  5  0  0  0  0  0  0  0  0  0  0
  1  2  1  0  0  0  0
  1 30  1  0  0  0  0
  1 31  1  0  0  0  0
  1 32  1  0  0  0  0
  2  3  1  0  0  0  0
  2 33  1  0  0  0  0
  2 34  1  0  0  0  0
  3  4  1  0  0  0  0
  3 35  1  0  0  0  0
  3 36  1  0  0  0  0
  4  5  1  0  0  0  0
  4 37  1  0  0  0  0
  4 38  1  0  0  0  0
  5 13  1  0  0  0  0
  5  6  2  0  0  0  0
  6  7  1  0  0  0  0
  7 12  2  0  0  0  0
  7  8  1  0  0  0  0
  8  9  2  0  0  0  0
  8 39  1  0  0  0  0
  9 10  1  0  0  0  0
  9 40  1  0  0  0  0
 10 11  2  0  0  0  0
 10 23  1  0  0  0  0
 11 12  1  0  0  0  0
 11 41  1  0  0  0  0
 12 13  1  0  0  0  0
 13 14  1  0  0  0  0
 14 15  1  0  0  0  0
 14 42  1  0  0  0  0
 14 43  1  0  0  0  0
 15 20  2  0  0  0  0
 15 16  1  0  0  0  0
 16 17  2  0  0  0  0
 16 44  1  0  0  0  0
 17 18  1  0  0  0  0
 17 45  1  0  0  0  0
 18 19  2  0  0  0  0
 18 21  1  0  0  0  0
 19 20  1  0  0  0  0
 19 46  1  0  0  0  0
 20 47  1  0  0  0  0
 21 22  2  0  0  0  0
 21 56  1  0  0  0  0
 23 24  2  0  0  0  0
 23 25  1  0  0  0  0
 25 29  1  0  0  0  0
 25 26  1  0  0  0  0
 26 27  1  0  0  0  0
 26 48  1  0  0  0  0
 26 49  1  0  0  0  0
 27 28  1  0  0  0  0
 27 50  1  0  0  0  0
 27 51  1  0  0  0  0
 28 29  1  0  0  0  0
 28 52  1  0  0  0  0
 28 53  1  0  0  0  0
 29 54  1  0  0  0  0
 29 55  1  0  0  0  0
M  CHG  1  56  -1
M  END
$$$$
ZINC03824683
  -OEChem-08230709463D

 57 60  0     0  0  0  0  0  0999 V2000
    4.7705    1.9268    1.1466 C   0  0  0  0  0  0  0  0  0  0  0  0
    4.3135    0.4681    1.2106 C   0  0  0  0  0  0  0  0  0  0  0  0
    2.8670    0.4081    1.7057 C   0  0  0  0  0  0  0  0  0  0  0  0
    2.4100   -1.0507    1.7697 C   0  0  0  0  0  0  0  0  0  0  0  0
    0.9621   -1.1058    2.1840 C   0  0  0  0  0  0  0  0  0  0  0  0
   -0.8153   -1.1749    3.4330 C   0  0  0  0  0  0  0  0  0  0  0  0
   -1.7634   -1.2141    4.4625 C   0  0  0  0  0  0  0  0  0  0  0  0
   -3.0912   -1.2728    4.1657 C   0  0  0  0  0  0  0  0  0  0  0  0
   -3.5223   -1.2944    2.8321 C   0  0  0  0  0  0  0  0  0  0  0  0
   -2.5915   -1.2560    1.7954 C   0  0  0  0  0  0  0  0  0  0  0  0
   -1.2408   -1.1964    2.0919 C   0  0  0  0  0  0  0  0  0  0  0  0
   -0.0911   -1.1482    1.3269 N   0  0  0  0  0  0  0  0  0  0  0  0
   -0.0206   -1.1493   -0.1364 C   0  0  0  0  0  0  0  0  0  0  0  0
   -0.0085   -2.5704   -0.6378 C   0  0  0  0  0  0  0  0  0  0  0  0
    1.1959   -3.1925   -0.9151 C   0  0  0  0  0  0  0  0  0  0  0  0
    1.2145   -4.4948   -1.3697 C   0  0  0  0  0  0  0  0  0  0  0  0
    0.0138   -5.1816   -1.5599 C   0  0  0  0  0  0  0  0  0  0  0  0
   -1.1982   -4.5459   -1.2831 C   0  0  0  0  0  0  0  0  0  0  0  0
   -1.2020   -3.2451   -0.8241 C   0  0  0  0  0  0  0  0  0  0  0  0
    0.0258   -6.5747   -2.0514 C   0  0  0  0  0  0  0  0  0  0  0  0
   -1.0204   -7.1698   -2.2155 O   0  0  0  0  0  0  0  0  0  0  0  0
   -4.9647   -1.3576    2.5251 C   0  0  0  0  0  0  0  0  0  0  0  0
   -5.3482   -1.2313    1.3783 O   0  0  0  0  0  0  0  0  0  0  0  0
   -5.8565   -1.5553    3.5161 N   0  0  0  0  0  0  0  0  0  0  0  0
   -5.5431   -1.6175    4.9511 C   0  0  0  0  0  0  0  0  0  0  0  0
   -6.8670   -1.8827    5.6983 C   0  0  0  0  0  0  0  0  0  0  0  0
   -7.7587   -2.5257    4.6034 C   0  0  0  0  0  0  0  0  0  0  0  0
   -7.3071   -1.7513    3.3401 C   0  0  0  0  0  0  0  0  0  0  0  0
    5.8009    1.9696    0.7939 H   0  0  0  0  0  0  0  0  0  0  0  0
    4.1284    2.4789    0.4603 H   0  0  0  0  0  0  0  0  0  0  0  0
    4.7076    2.3712    2.1399 H   0  0  0  0  0  0  0  0  0  0  0  0
    4.9556   -0.0840    1.8969 H   0  0  0  0  0  0  0  0  0  0  0  0
    4.3763    0.0237    0.2173 H   0  0  0  0  0  0  0  0  0  0  0  0
    2.2249    0.9602    1.0194 H   0  0  0  0  0  0  0  0  0  0  0  0
    2.8042    0.8525    2.6990 H   0  0  0  0  0  0  0  0  0  0  0  0
    3.0168   -1.5899    2.4971 H   0  0  0  0  0  0  0  0  0  0  0  0
    2.5249   -1.5109    0.7883 H   0  0  0  0  0  0  0  0  0  0  0  0
   -1.4413   -1.1982    5.4933 H   0  0  0  0  0  0  0  0  0  0  0  0
   -3.8179   -1.3024    4.9642 H   0  0  0  0  0  0  0  0  0  0  0  0
   -2.9221   -1.2723    0.7674 H   0  0  0  0  0  0  0  0  0  0  0  0
    0.8901   -0.6432   -0.4567 H   0  0  0  0  0  0  0  0  0  0  0  0
   -0.8878   -0.6282   -0.5423 H   0  0  0  0  0  0  0  0  0  0  0  0
    2.1237   -2.6587   -0.7714 H   0  0  0  0  0  0  0  0  0  0  0  0
    2.1555   -4.9807   -1.5815 H   0  0  0  0  0  0  0  0  0  0  0  0
   -2.1304   -5.0716   -1.4278 H   0  0  0  0  0  0  0  0  0  0  0  0
   -2.1387   -2.7524   -0.6092 H   0  0  0  0  0  0  0  0  0  0  0  0
   -4.8389   -2.4273    5.1420 H   0  0  0  0  0  0  0  0  0  0  0  0
   -5.1181   -0.6689    5.2792 H   0  0  0  0  0  0  0  0  0  0  0  0
   -7.3060   -0.9510    6.0552 H   0  0  0  0  0  0  0  0  0  0  0  0
   -6.7115   -2.5757    6.5252 H   0  0  0  0  0  0  0  0  0  0  0  0
   -8.8153   -2.3545    4.8097 H   0  0  0  0  0  0  0  0  0  0  0  0
   -7.5492   -3.5908    4.5046 H   0  0  0  0  0  0  0  0  0  0  0  0
   -7.8157   -0.7890    3.2829 H   0  0  0  0  0  0  0  0  0  0  0  0
   -7.5044   -2.3395    2.4438 H   0  0  0  0  0  0  0  0  0  0  0  0
    1.1968   -7.1850   -2.3175 O   0  5  0  0  0  0  0  0  0  0  0  0
    0.5398   -1.1162    3.4167 N   0  3  0  0  0  0  0  0  0  0  0  0
    1.1409   -1.0847    4.2485 H   0  0  0  0  0  0  0  0  0  0  0  0
  1  2  1  0  0  0  0
  1 29  1  0  0  0  0
  1 30  1  0  0  0  0
  1 31  1  0  0  0  0
  2  3  1  0  0  0  0
  2 32  1  0  0  0  0
  2 33  1  0  0  0  0
  3  4  1  0  0  0  0
  3 34  1  0  0  0  0
  3 35  1  0  0  0  0
  4  5  1  0  0  0  0
  4 36  1  0  0  0  0
  4 37  1  0  0  0  0
  5 12  1  0  0  0  0
  5 56  2  0  0  0  0
  6 11  2  0  0  0  0
  6  7  1  0  0  0  0
  6 56  1  0  0  0  0
  7  8  2  0  0  0  0
  7 38  1  0  0  0  0
  8  9  1  0  0  0  0
  8 39  1  0  0  0  0
  9 10  2  0  0  0  0
  9 22  1  0  0  0  0
 10 11  1  0  0  0  0
 10 40  1  0  0  0  0
 11 12  1  0  0  0  0
 12 13  1  0  0  0  0
 13 14  1  0  0  0  0
 13 41  1  0  0  0  0
 13 42  1  0  0  0  0
 14 19  2  0  0  0  0
 14 15  1  0  0  0  0
 15 16  2  0  0  0  0
 15 43  1  0  0  0  0
 16 17  1  0  0  0  0
 16 44  1  0  0  0  0
 17 18  2  0  0  0  0
 17 20  1  0  0  0  0
 18 19  1  0  0  0  0
 18 45  1  0  0  0  0
 19 46  1  0  0  0  0
 20 21  2  0  0  0  0
 20 55  1  0  0  0  0
 22 23  2  0  0  0  0
 22 24  1  0  0  0  0
 24 28  1  0  0  0  0
 24 25  1  0  0  0  0
 25 26  1  0  0  0  0
 25 47  1  0  0  0  0
 25 48  1  0  0  0  0
 26 27  1  0  0  0  0
 26 49  1  0  0  0  0
 26 50  1  0  0  0  0
 27 28  1  0  0  0  0
 27 51  1  0  0  0  0
 27 52  1  0  0  0  0
 28 53  1  0  0  0  0
 28 54  1  0  0  0  0
 56 57  1  0  0  0  0
M  CHG  2  55  -1  56   1
M  END
$$$$
ZINC03824684
  -OEChem-08230709463D

 58 60  0     0  0  0  0  0  0999 V2000
    5.3468    0.8705    2.0575 C   0  0  0  0  0  0  0  0  0  0  0  0
    4.7031   -0.4978    1.8243 C   0  0  0  0  0  0  0  0  0  0  0  0
    3.1953   -0.3997    2.0650 C   0  0  0  0  0  0  0  0  0  0  0  0
    2.5516   -1.7680    1.8318 C   0  0  0  0  0  0  0  0  0  0  0  0
    1.0881   -1.7014    2.1854 C   0  0  0  0  0  0  0  0  0  0  0  0
    0.6031   -1.8531    3.3844 N   0  0  0  0  0  0  0  0  0  0  0  0
   -0.7472   -1.7401    3.3489 C   0  0  0  0  0  0  0  0  0  0  0  0
   -1.7455   -1.8210    4.3273 C   0  0  0  0  0  0  0  0  0  0  0  0
   -3.0534   -1.6613    3.9828 C   0  0  0  0  0  0  0  0  0  0  0  0
   -3.4137   -1.4152    2.6508 C   0  0  0  0  0  0  0  0  0  0  0  0
   -2.4323   -1.3308    1.6648 C   0  0  0  0  0  0  0  0  0  0  0  0
   -1.1017   -1.4928    2.0097 C   0  0  0  0  0  0  0  0  0  0  0  0
    0.0838   -1.4708    1.3000 N   0  0  0  0  0  0  0  0  0  0  0  0
    0.2299   -1.2467   -0.1403 C   0  0  0  0  0  0  0  0  0  0  0  0
    0.0504   -2.5516   -0.8725 C   0  0  0  0  0  0  0  0  0  0  0  0
    1.1578   -3.3070   -1.2153 C   0  0  0  0  0  0  0  0  0  0  0  0
    1.0003   -4.5047   -1.8812 C   0  0  0  0  0  0  0  0  0  0  0  0
   -0.2796   -4.9491   -2.2188 C   0  0  0  0  0  0  0  0  0  0  0  0
   -1.3924   -4.1792   -1.8745 C   0  0  0  0  0  0  0  0  0  0  0  0
   -1.2209   -2.9860   -1.2039 C   0  0  0  0  0  0  0  0  0  0  0  0
   -0.4556   -6.2283   -2.9365 C   0  0  0  0  0  0  0  0  0  0  0  0
   -1.5704   -6.6124   -3.2285 O   0  0  0  0  0  0  0  0  0  0  0  0
   -4.8352   -1.2442    2.2918 C   0  0  0  0  0  0  0  0  0  0  0  0
   -5.1526   -0.4509    1.4268 O   0  0  0  0  0  0  0  0  0  0  0  0
   -5.7814   -1.9673    2.9229 N   0  0  0  0  0  0  0  0  0  0  0  0
   -7.1747   -1.9000    2.4755 C   0  0  0  0  0  0  0  0  0  0  0  0
   -7.4544   -3.0481    1.5036 C   0  0  0  0  0  0  0  0  0  0  0  0
   -5.4164   -2.8208    4.0564 C   0  0  0  0  0  0  0  0  0  0  0  0
   -5.7242   -2.0900    5.3649 C   0  0  0  0  0  0  0  0  0  0  0  0
    4.9155    1.5971    1.3689 H   0  0  0  0  0  0  0  0  0  0  0  0
    5.1627    1.1885    3.0836 H   0  0  0  0  0  0  0  0  0  0  0  0
    6.4210    0.8006    1.8860 H   0  0  0  0  0  0  0  0  0  0  0  0
    5.1345   -1.2244    2.5128 H   0  0  0  0  0  0  0  0  0  0  0  0
    4.8872   -0.8158    0.7981 H   0  0  0  0  0  0  0  0  0  0  0  0
    2.7640    0.3269    1.3765 H   0  0  0  0  0  0  0  0  0  0  0  0
    3.0112   -0.0817    3.0912 H   0  0  0  0  0  0  0  0  0  0  0  0
    3.0432   -2.5123    2.4582 H   0  0  0  0  0  0  0  0  0  0  0  0
    2.6598   -2.0465    0.7836 H   0  0  0  0  0  0  0  0  0  0  0  0
   -1.4780   -2.0106    5.3563 H   0  0  0  0  0  0  0  0  0  0  0  0
   -3.8189   -1.7251    4.7419 H   0  0  0  0  0  0  0  0  0  0  0  0
   -2.7084   -1.1406    0.6381 H   0  0  0  0  0  0  0  0  0  0  0  0
    1.2230   -0.8478   -0.3471 H   0  0  0  0  0  0  0  0  0  0  0  0
   -0.5245   -0.5351   -0.4757 H   0  0  0  0  0  0  0  0  0  0  0  0
    2.1475   -2.9601   -0.9572 H   0  0  0  0  0  0  0  0  0  0  0  0
    1.8653   -5.0956   -2.1442 H   0  0  0  0  0  0  0  0  0  0  0  0
   -2.3852   -4.5173   -2.1323 H   0  0  0  0  0  0  0  0  0  0  0  0
   -2.0807   -2.3897   -0.9367 H   0  0  0  0  0  0  0  0  0  0  0  0
   -7.8374   -1.9835    3.3369 H   0  0  0  0  0  0  0  0  0  0  0  0
   -7.3496   -0.9483    1.9736 H   0  0  0  0  0  0  0  0  0  0  0  0
   -6.7917   -2.9645    0.6422 H   0  0  0  0  0  0  0  0  0  0  0  0
   -7.2795   -3.9997    2.0055 H   0  0  0  0  0  0  0  0  0  0  0  0
   -8.4911   -2.9979    1.1707 H   0  0  0  0  0  0  0  0  0  0  0  0
   -5.9902   -3.7466    4.0136 H   0  0  0  0  0  0  0  0  0  0  0  0
   -4.3519   -3.0505    4.0102 H   0  0  0  0  0  0  0  0  0  0  0  0
   -5.3083   -2.6518    6.2012 H   0  0  0  0  0  0  0  0  0  0  0  0
   -5.2798   -1.0951    5.3386 H   0  0  0  0  0  0  0  0  0  0  0  0
   -6.8038   -2.0026    5.4869 H   0  0  0  0  0  0  0  0  0  0  0  0
    0.6201   -6.9686   -3.2672 O   0  5  0  0  0  0  0  0  0  0  0  0
  1  2  1  0  0  0  0
  1 30  1  0  0  0  0
  1 31  1  0  0  0  0
  1 32  1  0  0  0  0
  2  3  1  0  0  0  0
  2 33  1  0  0  0  0
  2 34  1  0  0  0  0
  3  4  1  0  0  0  0
  3 35  1  0  0  0  0
  3 36  1  0  0  0  0
  4  5  1  0  0  0  0
  4 37  1  0  0  0  0
  4 38  1  0  0  0  0
  5 13  1  0  0  0  0
  5  6  2  0  0  0  0
  6  7  1  0  0  0  0
  7 12  2  0  0  0  0
  7  8  1  0  0  0  0
  8  9  2  0  0  0  0
  8 39  1  0  0  0  0
  9 10  1  0  0  0  0
  9 40  1  0  0  0  0
 10 11  2  0  0  0  0
 10 23  1  0  0  0  0
 11 12  1  0  0  0  0
 11 41  1  0  0  0  0
 12 13  1  0  0  0  0
 13 14  1  0  0  0  0
 14 15  1  0  0  0  0
 14 42  1  0  0  0  0
 14 43  1  0  0  0  0
 15 20  2  0  0  0  0
 15 16  1  0  0  0  0
 16 17  2  0  0  0  0
 16 44  1  0  0  0  0
 17 18  1  0  0  0  0
 17 45  1  0  0  0  0
 18 19  2  0  0  0  0
 18 21  1  0  0  0  0
 19 20  1  0  0  0  0
 19 46  1  0  0  0  0
 20 47  1  0  0  0  0
 21 22  2  0  0  0  0
 21 58  1  0  0  0  0
 23 24  2  0  0  0  0
 23 25  1  0  0  0  0
 25 26  1  0  0  0  0
 25 28  1  0  0  0  0
 26 27  1  0  0  0  0
 26 48  1  0  0  0  0
 26 49  1  0  0  0  0
 27 50  1  0  0  0  0
 27 51  1  0  0  0  0
 27 52  1  0  0  0  0
 28 29  1  0  0  0  0
 28 53  1  0  0  0  0
 28 54  1  0  0  0  0
 29 55  1  0  0  0  0
 29 56  1  0  0  0  0
 29 57  1  0  0  0  0
M  CHG  1  58  -1
M  END
$$$$
ZINC03824684
  -OEChem-08230709463D

 59 61  0     0  0  0  0  0  0999 V2000
    5.3468    0.8705    2.0575 C   0  0  0  0  0  0  0  0  0  0  0  0
    4.7031   -0.4978    1.8243 C   0  0  0  0  0  0  0  0  0  0  0  0
    3.1953   -0.3997    2.0650 C   0  0  0  0  0  0  0  0  0  0  0  0
    2.5516   -1.7680    1.8318 C   0  0  0  0  0  0  0  0  0  0  0  0
    1.0881   -1.7014    2.1854 C   0  0  0  0  0  0  0  0  0  0  0  0
   -0.7472   -1.7401    3.3489 C   0  0  0  0  0  0  0  0  0  0  0  0
   -1.7455   -1.8210    4.3273 C   0  0  0  0  0  0  0  0  0  0  0  0
   -3.0534   -1.6613    3.9828 C   0  0  0  0  0  0  0  0  0  0  0  0
   -3.4137   -1.4152    2.6508 C   0  0  0  0  0  0  0  0  0  0  0  0
   -2.4323   -1.3308    1.6648 C   0  0  0  0  0  0  0  0  0  0  0  0
   -1.1017   -1.4928    2.0097 C   0  0  0  0  0  0  0  0  0  0  0  0
    0.0838   -1.4708    1.3000 N   0  0  0  0  0  0  0  0  0  0  0  0
    0.2299   -1.2467   -0.1403 C   0  0  0  0  0  0  0  0  0  0  0  0
    0.0504   -2.5516   -0.8725 C   0  0  0  0  0  0  0  0  0  0  0  0
    1.1578   -3.3070   -1.2153 C   0  0  0  0  0  0  0  0  0  0  0  0
    1.0003   -4.5047   -1.8812 C   0  0  0  0  0  0  0  0  0  0  0  0
   -0.2796   -4.9491   -2.2188 C   0  0  0  0  0  0  0  0  0  0  0  0
   -1.3924   -4.1792   -1.8745 C   0  0  0  0  0  0  0  0  0  0  0  0
   -1.2209   -2.9860   -1.2039 C   0  0  0  0  0  0  0  0  0  0  0  0
   -0.4556   -6.2283   -2.9365 C   0  0  0  0  0  0  0  0  0  0  0  0
   -1.5704   -6.6124   -3.2285 O   0  0  0  0  0  0  0  0  0  0  0  0
   -4.8352   -1.2442    2.2918 C   0  0  0  0  0  0  0  0  0  0  0  0
   -5.1526   -0.4509    1.4268 O   0  0  0  0  0  0  0  0  0  0  0  0
   -5.7814   -1.9673    2.9229 N   0  0  0  0  0  0  0  0  0  0  0  0
   -7.1747   -1.9000    2.4755 C   0  0  0  0  0  0  0  0  0  0  0  0
   -7.4544   -3.0481    1.5036 C   0  0  0  0  0  0  0  0  0  0  0  0
   -5.4164   -2.8208    4.0564 C   0  0  0  0  0  0  0  0  0  0  0  0
   -5.7242   -2.0900    5.3649 C   0  0  0  0  0  0  0  0  0  0  0  0
    4.9155    1.5971    1.3689 H   0  0  0  0  0  0  0  0  0  0  0  0
    5.1627    1.1885    3.0836 H   0  0  0  0  0  0  0  0  0  0  0  0
    6.4210    0.8006    1.8860 H   0  0  0  0  0  0  0  0  0  0  0  0
    5.1345   -1.2244    2.5128 H   0  0  0  0  0  0  0  0  0  0  0  0
    4.8872   -0.8158    0.7981 H   0  0  0  0  0  0  0  0  0  0  0  0
    2.7640    0.3269    1.3765 H   0  0  0  0  0  0  0  0  0  0  0  0
    3.0112   -0.0817    3.0912 H   0  0  0  0  0  0  0  0  0  0  0  0
    3.0432   -2.5123    2.4582 H   0  0  0  0  0  0  0  0  0  0  0  0
    2.6598   -2.0465    0.7836 H   0  0  0  0  0  0  0  0  0  0  0  0
   -1.4780   -2.0106    5.3563 H   0  0  0  0  0  0  0  0  0  0  0  0
   -3.8189   -1.7251    4.7419 H   0  0  0  0  0  0  0  0  0  0  0  0
   -2.7084   -1.1406    0.6381 H   0  0  0  0  0  0  0  0  0  0  0  0
    1.2230   -0.8478   -0.3471 H   0  0  0  0  0  0  0  0  0  0  0  0
   -0.5245   -0.5351   -0.4757 H   0  0  0  0  0  0  0  0  0  0  0  0
    2.1475   -2.9601   -0.9572 H   0  0  0  0  0  0  0  0  0  0  0  0
    1.8653   -5.0956   -2.1442 H   0  0  0  0  0  0  0  0  0  0  0  0
   -2.3852   -4.5173   -2.1323 H   0  0  0  0  0  0  0  0  0  0  0  0
   -2.0807   -2.3897   -0.9367 H   0  0  0  0  0  0  0  0  0  0  0  0
   -7.8374   -1.9835    3.3369 H   0  0  0  0  0  0  0  0  0  0  0  0
   -7.3496   -0.9483    1.9736 H   0  0  0  0  0  0  0  0  0  0  0  0
   -6.7917   -2.9645    0.6422 H   0  0  0  0  0  0  0  0  0  0  0  0
   -7.2795   -3.9997    2.0055 H   0  0  0  0  0  0  0  0  0  0  0  0
   -8.4911   -2.9979    1.1707 H   0  0  0  0  0  0  0  0  0  0  0  0
   -5.9902   -3.7466    4.0136 H   0  0  0  0  0  0  0  0  0  0  0  0
   -4.3519   -3.0505    4.0102 H   0  0  0  0  0  0  0  0  0  0  0  0
   -5.3083   -2.6518    6.2012 H   0  0  0  0  0  0  0  0  0  0  0  0
   -5.2798   -1.0951    5.3386 H   0  0  0  0  0  0  0  0  0  0  0  0
   -6.8038   -2.0026    5.4869 H   0  0  0  0  0  0  0  0  0  0  0  0
    0.6201   -6.9686   -3.2672 O   0  5  0  0  0  0  0  0  0  0  0  0
    0.6039   -1.8534    3.3856 N   0  3  0  0  0  0  0  0  0  0  0  0
    1.1602   -2.0316    4.2300 H   0  0  0  0  0  0  0  0  0  0  0  0
  1  2  1  0  0  0  0
  1 29  1  0  0  0  0
  1 30  1  0  0  0  0
  1 31  1  0  0  0  0
  2  3  1  0  0  0  0
  2 32  1  0  0  0  0
  2 33  1  0  0  0  0
  3  4  1  0  0  0  0
  3 34  1  0  0  0  0
  3 35  1  0  0  0  0
  4  5  1  0  0  0  0
  4 36  1  0  0  0  0
  4 37  1  0  0  0  0
  5 12  1  0  0  0  0
  5 58  2  0  0  0  0
  6 11  2  0  0  0  0
  6  7  1  0  0  0  0
  6 58  1  0  0  0  0
  7  8  2  0  0  0  0
  7 38  1  0  0  0  0
  8  9  1  0  0  0  0
  8 39  1  0  0  0  0
  9 10  2  0  0  0  0
  9 22  1  0  0  0  0
 10 11  1  0  0  0  0
 10 40  1  0  0  0  0
 11 12  1  0  0  0  0
 12 13  1  0  0  0  0
 13 14  1  0  0  0  0
 13 41  1  0  0  0  0
 13 42  1  0  0  0  0
 14 19  2  0  0  0  0
 14 15  1  0  0  0  0
 15 16  2  0  0  0  0
 15 43  1  0  0  0  0
 16 17  1  0  0  0  0
 16 44  1  0  0  0  0
 17 18  2  0  0  0  0
 17 20  1  0  0  0  0
 18 19  1  0  0  0  0
 18 45  1  0  0  0  0
 19 46  1  0  0  0  0
 20 21  2  0  0  0  0
 20 57  1  0  0  0  0
 22 23  2  0  0  0  0
 22 24  1  0  0  0  0
 24 25  1  0  0  0  0
 24 27  1  0  0  0  0
 25 26  1  0  0  0  0
 25 47  1  0  0  0  0
 25 48  1  0  0  0  0
 26 49  1  0  0  0  0
 26 50  1  0  0  0  0
 26 51  1  0  0  0  0
 27 28  1  0  0  0  0
 27 52  1  0  0  0  0
 27 53  1  0  0  0  0
 28 54  1  0  0  0  0
 28 55  1  0  0  0  0
 28 56  1  0  0  0  0
 58 59  1  0  0  0  0
M  CHG  2  57  -1  58   1
M  END
$$$$
ZINC03825043
  -OEChem-08230709463D

 58 62  0     0  0  0  0  0  0999 V2000
   -8.6026    9.8744    4.5951 C   0  0  0  0  0  0  0  0  0  0  0  0
   -8.6411   10.1183    3.0852 C   0  0  0  0  0  0  0  0  0  0  0  0
  -10.0723   10.4452    2.6641 C   0  0  0  0  0  0  0  0  0  0  0  0
  -10.9241    9.1798    2.8179 C   0  0  0  0  0  0  0  0  0  0  0  0
  -10.4967    8.1779    1.7468 C   0  0  0  0  0  0  0  0  0  0  0  0
   -9.0026    7.9912    1.7642 C   0  0  0  0  0  0  0  0  0  0  0  0
   -8.1471    8.8872    2.3700 C   0  0  0  0  0  0  0  0  0  0  0  0
   -6.8344    8.6794    2.3414 N   0  0  0  0  0  0  0  0  0  0  0  0
   -6.3296    7.6216    1.7393 C   0  0  0  0  0  0  0  0  0  0  0  0
   -7.2055    6.7025    1.1451 C   0  0  0  0  0  0  0  0  0  0  0  0
   -8.5091    6.9125    1.1654 N   0  0  0  0  0  0  0  0  0  0  0  0
   -6.6069    5.5107    0.5120 C   0  0  0  0  0  0  0  0  0  0  0  0
   -5.3054    5.1549    0.7863 C   0  0  0  0  0  0  0  0  0  0  0  0
   -5.0162    4.0086    0.0484 C   0  0  0  0  0  0  0  0  0  0  0  0
   -6.0969    3.6748   -0.6362 N   0  0  0  0  0  0  0  0  0  0  0  0
   -7.1086    4.6089   -0.3564 N   0  0  0  0  0  0  0  0  0  0  0  0
   -8.4655    4.6041   -0.9088 C   0  0  0  0  0  0  0  0  0  0  0  0
   -3.7220    3.2847    0.0379 C   0  0  0  0  0  0  0  0  0  0  0  0
   -3.2093    2.7912   -1.1621 C   0  0  0  0  0  0  0  0  0  0  0  0
   -2.0085    2.1187   -1.1733 C   0  0  0  0  0  0  0  0  0  0  0  0
   -1.3024    1.9307    0.0183 C   0  0  0  0  0  0  0  0  0  0  0  0
   -1.8199    2.4211    1.2206 C   0  0  0  0  0  0  0  0  0  0  0  0
   -3.0186    3.0974    1.2281 C   0  0  0  0  0  0  0  0  0  0  0  0
   -0.0148    1.2100    0.0079 C   0  0  0  0  0  0  0  0  0  0  0  0
    0.4320    0.7797   -1.0367 O   0  0  0  0  0  0  0  0  0  0  0  0
   -4.4406    5.9542    1.7232 C   0  0  0  0  0  0  0  0  0  0  0  0
   -4.8411    7.4274    1.6669 C   0  0  0  0  0  0  0  0  0  0  0  0
  -11.1765    6.8334    2.0133 C   0  0  0  0  0  0  0  0  0  0  0  0
  -10.9248    8.6954    0.3721 C   0  0  0  0  0  0  0  0  0  0  0  0
   -7.7323   11.3003    2.7417 C   0  0  0  0  0  0  0  0  0  0  0  0
   -7.5791    9.6594    4.9025 H   0  0  0  0  0  0  0  0  0  0  0  0
   -8.9593   10.7630    5.1160 H   0  0  0  0  0  0  0  0  0  0  0  0
   -9.2418    9.0269    4.8427 H   0  0  0  0  0  0  0  0  0  0  0  0
  -10.4705   11.2346    3.3015 H   0  0  0  0  0  0  0  0  0  0  0  0
  -10.0825   10.7735    1.6247 H   0  0  0  0  0  0  0  0  0  0  0  0
  -10.7668    8.7493    3.8068 H   0  0  0  0  0  0  0  0  0  0  0  0
  -11.9775    9.4285    2.6891 H   0  0  0  0  0  0  0  0  0  0  0  0
   -9.1202    4.0231   -0.2593 H   0  0  0  0  0  0  0  0  0  0  0  0
   -8.8345    5.6276   -0.9750 H   0  0  0  0  0  0  0  0  0  0  0  0
   -8.4513    4.1580   -1.9033 H   0  0  0  0  0  0  0  0  0  0  0  0
   -3.7551    2.9366   -2.0826 H   0  0  0  0  0  0  0  0  0  0  0  0
   -1.6118    1.7368   -2.1023 H   0  0  0  0  0  0  0  0  0  0  0  0
   -1.2776    2.2726    2.1427 H   0  0  0  0  0  0  0  0  0  0  0  0
   -3.4169    3.4796    2.1563 H   0  0  0  0  0  0  0  0  0  0  0  0
   -3.3953    5.8511    1.4321 H   0  0  0  0  0  0  0  0  0  0  0  0
   -4.5729    5.5810    2.7387 H   0  0  0  0  0  0  0  0  0  0  0  0
   -4.4742    7.8573    0.7348 H   0  0  0  0  0  0  0  0  0  0  0  0
   -4.3760    7.9515    2.5018 H   0  0  0  0  0  0  0  0  0  0  0  0
  -12.2585    6.9610    1.9830 H   0  0  0  0  0  0  0  0  0  0  0  0
  -10.8737    6.1158    1.2508 H   0  0  0  0  0  0  0  0  0  0  0  0
  -10.8814    6.4656    2.9961 H   0  0  0  0  0  0  0  0  0  0  0  0
  -10.4500    9.6579    0.1821 H   0  0  0  0  0  0  0  0  0  0  0  0
  -10.6214    7.9828   -0.3949 H   0  0  0  0  0  0  0  0  0  0  0  0
  -12.0081    8.8139    0.3498 H   0  0  0  0  0  0  0  0  0  0  0  0
   -7.7500   11.4714    1.6654 H   0  0  0  0  0  0  0  0  0  0  0  0
   -8.0866   12.1929    3.2573 H   0  0  0  0  0  0  0  0  0  0  0  0
   -6.7129   11.0787    3.0577 H   0  0  0  0  0  0  0  0  0  0  0  0
    0.6680    1.0339    1.1561 O   0  5  0  0  0  0  0  0  0  0  0  0
  1  2  1  0  0  0  0
  1 31  1  0  0  0  0
  1 32  1  0  0  0  0
  1 33  1  0  0  0  0
  2  7  1  0  0  0  0
  2  3  1  0  0  0  0
  2 30  1  0  0  0  0
  3  4  1  0  0  0  0
  3 34  1  0  0  0  0
  3 35  1  0  0  0  0
  4  5  1  0  0  0  0
  4 36  1  0  0  0  0
  4 37  1  0  0  0  0
  5  6  1  0  0  0  0
  5 28  1  0  0  0  0
  5 29  1  0  0  0  0
  6 11  2  0  0  0  0
  6  7  1  0  0  0  0
  7  8  2  0  0  0  0
  8  9  1  0  0  0  0
  9 27  1  0  0  0  0
  9 10  2  0  0  0  0
 10 11  1  0  0  0  0
 10 12  1  0  0  0  0
 12 16  1  0  0  0  0
 12 13  2  0  0  0  0
 13 14  1  0  0  0  0
 13 26  1  0  0  0  0
 14 15  2  0  0  0  0
 14 18  1  0  0  0  0
 15 16  1  0  0  0  0
 16 17  1  0  0  0  0
 17 38  1  0  0  0  0
 17 39  1  0  0  0  0
 17 40  1  0  0  0  0
 18 23  2  0  0  0  0
 18 19  1  0  0  0  0
 19 20  2  0  0  0  0
 19 41  1  0  0  0  0
 20 21  1  0  0  0  0
 20 42  1  0  0  0  0
 21 22  2  0  0  0  0
 21 24  1  0  0  0  0
 22 23  1  0  0  0  0
 22 43  1  0  0  0  0
 23 44  1  0  0  0  0
 24 25  2  0  0  0  0
 24 58  1  0  0  0  0
 26 27  1  0  0  0  0
 26 45  1  0  0  0  0
 26 46  1  0  0  0  0
 27 47  1  0  0  0  0
 27 48  1  0  0  0  0
 28 49  1  0  0  0  0
 28 50  1  0  0  0  0
 28 51  1  0  0  0  0
 29 52  1  0  0  0  0
 29 53  1  0  0  0  0
 29 54  1  0  0  0  0
 30 55  1  0  0  0  0
 30 56  1  0  0  0  0
 30 57  1  0  0  0  0
M  CHG  1  58  -1
M  END
$$$$
ZINC03826143
  -OEChem-08230709463D

 59 62  0     0  0  0  0  0  0999 V2000
    2.4893   -2.6077   -0.6979 C   0  0  0  0  0  0  0  0  0  0  0  0
    1.2173   -2.0009   -0.4614 O   0  0  0  0  0  0  0  0  0  0  0  0
    1.2061   -0.6611   -0.2288 C   0  0  0  0  0  0  0  0  0  0  0  0
    2.3934    0.0535   -0.2278 C   0  0  0  0  0  0  0  0  0  0  0  0
    2.3803    1.4153    0.0092 C   0  0  0  0  0  0  0  0  0  0  0  0
    1.1844    2.0675    0.2457 C   0  0  0  0  0  0  0  0  0  0  0  0
   -0.0036    1.3606    0.2462 C   0  0  0  0  0  0  0  0  0  0  0  0
    0.0025   -0.0047    0.0093 C   0  0  0  0  0  0  0  0  0  0  0  0
   -1.1654   -0.7015    0.0090 O   0  0  0  0  0  0  0  0  0  0  0  0
   -2.3717    0.0541    0.1351 C   0  0  0  0  0  0  0  0  0  0  0  0
   -2.7007    0.2796    1.6253 C   0  0  0  0  0  0  0  0  0  0  0  0
   -4.2454    0.1761    1.6924 C   0  0  0  0  0  0  0  0  0  0  0  0
   -4.5568   -0.9590    0.6855 C   0  0  0  0  0  0  0  0  0  0  0  0
   -3.5514   -0.7327   -0.4624 C   0  0  0  0  0  0  0  0  0  0  0  0
    1.1758    3.5523    0.5031 C   0  0  0  0  0  0  0  0  0  0  0  0
    0.3290    4.2499   -0.5633 C   0  0  0  0  0  0  0  0  0  0  0  0
    0.3203    5.7574   -0.3021 C   0  0  0  0  0  0  0  0  0  0  0  0
    1.7525    6.2928   -0.3573 C   0  0  0  0  0  0  0  0  0  0  0  0
    2.5993    5.5953    0.7091 C   0  0  0  0  0  0  0  0  0  0  0  0
    2.6080    4.0878    0.4478 C   0  0  0  0  0  0  0  0  0  0  0  0
    2.3376    6.0225   -1.7195 C   0  0  0  0  0  0  0  0  0  0  0  0
    3.3301    5.3417   -1.8264 O   0  0  0  0  0  0  0  0  0  0  0  0
    0.6043    3.8164    1.8336 C   0  0  0  0  0  0  0  0  0  0  0  0
    0.1484    4.0270    2.8948 C   0  0  0  0  0  0  0  0  0  0  0  0
   -0.4076    4.2839    4.1892 C   0  0  0  0  0  0  0  0  0  0  0  0
   -0.8498    3.2347    5.0033 C   0  0  0  0  0  0  0  0  0  0  0  0
   -1.3735    3.5272    6.2453 C   0  0  0  0  0  0  0  0  0  0  0  0
   -1.4702    4.7749    6.6632 N   0  0  0  0  0  0  0  0  0  0  0  0
   -1.0706    5.7933    5.9257 C   0  0  0  0  0  0  0  0  0  0  0  0
   -0.5293    5.5916    4.6732 C   0  0  0  0  0  0  0  0  0  0  0  0
    2.3561   -3.6760   -0.8686 H   0  0  0  0  0  0  0  0  0  0  0  0
    2.9506   -2.1543   -1.5752 H   0  0  0  0  0  0  0  0  0  0  0  0
    3.1314   -2.4557    0.1697 H   0  0  0  0  0  0  0  0  0  0  0  0
    3.3290   -0.4537   -0.4120 H   0  0  0  0  0  0  0  0  0  0  0  0
    3.3063    1.9711    0.0093 H   0  0  0  0  0  0  0  0  0  0  0  0
   -0.9369    1.8731    0.4268 H   0  0  0  0  0  0  0  0  0  0  0  0
   -2.2665    1.0126   -0.3733 H   0  0  0  0  0  0  0  0  0  0  0  0
   -2.2397   -0.4942    2.2391 H   0  0  0  0  0  0  0  0  0  0  0  0
   -2.3696    1.2681    1.9437 H   0  0  0  0  0  0  0  0  0  0  0  0
   -4.7086    1.1108    1.3761 H   0  0  0  0  0  0  0  0  0  0  0  0
   -4.5741   -0.0962    2.6953 H   0  0  0  0  0  0  0  0  0  0  0  0
   -5.5798   -0.8738    0.3190 H   0  0  0  0  0  0  0  0  0  0  0  0
   -4.3957   -1.9331    1.1472 H   0  0  0  0  0  0  0  0  0  0  0  0
   -4.0192   -0.1557   -1.2602 H   0  0  0  0  0  0  0  0  0  0  0  0
   -3.2038   -1.6909   -0.8486 H   0  0  0  0  0  0  0  0  0  0  0  0
    0.7522    4.0543   -1.5486 H   0  0  0  0  0  0  0  0  0  0  0  0
   -0.6913    3.8684   -0.5239 H   0  0  0  0  0  0  0  0  0  0  0  0
   -0.1029    5.9529    0.6832 H   0  0  0  0  0  0  0  0  0  0  0  0
   -0.2830    6.2543   -1.0618 H   0  0  0  0  0  0  0  0  0  0  0  0
    1.7463    7.3668   -0.1712 H   0  0  0  0  0  0  0  0  0  0  0  0
    2.1761    5.7908    1.6943 H   0  0  0  0  0  0  0  0  0  0  0  0
    3.6196    5.9767    0.6697 H   0  0  0  0  0  0  0  0  0  0  0  0
    3.2113    3.5908    1.2075 H   0  0  0  0  0  0  0  0  0  0  0  0
    3.0312    3.8922   -0.5375 H   0  0  0  0  0  0  0  0  0  0  0  0
   -0.7783    2.2113    4.6657 H   0  0  0  0  0  0  0  0  0  0  0  0
   -1.7137    2.7242    6.8825 H   0  0  0  0  0  0  0  0  0  0  0  0
   -1.1690    6.7987    6.3078 H   0  0  0  0  0  0  0  0  0  0  0  0
   -0.2046    6.4300    4.0748 H   0  0  0  0  0  0  0  0  0  0  0  0
    1.7562    6.5379   -2.8141 O   0  5  0  0  0  0  0  0  0  0  0  0
  1  2  1  0  0  0  0
  1 31  1  0  0  0  0
  1 32  1  0  0  0  0
  1 33  1  0  0  0  0
  2  3  1  0  0  0  0
  3  8  2  0  0  0  0
  3  4  1  0  0  0  0
  4  5  2  0  0  0  0
  4 34  1  0  0  0  0
  5  6  1  0  0  0  0
  5 35  1  0  0  0  0
  6  7  2  0  0  0  0
  6 15  1  0  0  0  0
  7  8  1  0  0  0  0
  7 36  1  0  0  0  0
  8  9  1  0  0  0  0
  9 10  1  0  0  0  0
 10 14  1  0  0  0  0
 10 11  1  0  0  0  0
 10 37  1  0  0  0  0
 11 12  1  0  0  0  0
 11 38  1  0  0  0  0
 11 39  1  0  0  0  0
 12 13  1  0  0  0  0
 12 40  1  0  0  0  0
 12 41  1  0  0  0  0
 13 14  1  0  0  0  0
 13 42  1  0  0  0  0
 13 43  1  0  0  0  0
 14 44  1  0  0  0  0
 14 45  1  0  0  0  0
 15 20  1  0  0  0  0
 15 16  1  0  0  0  0
 15 23  1  0  0  0  0
 16 17  1  0  0  0  0
 16 46  1  0  0  0  0
 16 47  1  0  0  0  0
 17 18  1  0  0  0  0
 17 48  1  0  0  0  0
 17 49  1  0  0  0  0
 18 19  1  0  0  0  0
 18 21  1  0  0  0  0
 18 50  1  0  0  0  0
 19 20  1  0  0  0  0
 19 51  1  0  0  0  0
 19 52  1  0  0  0  0
 20 53  1  0  0  0  0
 20 54  1  0  0  0  0
 21 22  2  0  0  0  0
 21 59  1  0  0  0  0
 23 24  3  0  0  0  0
 24 25  1  0  0  0  0
 25 30  2  0  0  0  0
 25 26  1  0  0  0  0
 26 27  2  0  0  0  0
 26 55  1  0  0  0  0
 27 28  1  0  0  0  0
 27 56  1  0  0  0  0
 28 29  2  0  0  0  0
 29 30  1  0  0  0  0
 29 57  1  0  0  0  0
 30 58  1  0  0  0  0
M  CHG  1  59  -1
M  END
$$$$
ZINC03849814
  -OEChem-08230709463D

 61 64  0     1  0  0  0  0  0999 V2000
   -4.3393   -1.5502   -2.9749 C   0  0  0  0  0  0  0  0  0  0  0  0
   -3.6182   -1.2898   -1.6509 C   0  0  2  0  0  0  0  0  0  0  0  0
   -2.6590   -2.4590   -1.4145 C   0  0  0  0  0  0  0  0  0  0  0  0
   -3.4435   -3.7674   -1.5228 C   0  0  0  0  0  0  0  0  0  0  0  0
   -4.6796   -3.7411   -0.6763 C   0  0  0  0  0  0  0  0  0  0  0  0
   -5.2545   -2.6330   -0.2426 C   0  0  0  0  0  0  0  0  0  0  0  0
   -4.6486   -1.3240   -0.5627 C   0  0  0  0  0  0  0  0  0  0  0  0
   -5.0225   -0.2623    0.1277 C   0  0  0  0  0  0  0  0  0  0  0  0
   -4.4085    1.1093   -0.1531 C   0  0  0  0  0  0  0  0  0  0  0  0
   -2.9376    0.8517   -0.5083 C   0  0  1  0  0  0  0  0  0  0  0  0
   -2.4602    0.3029    0.3035 H   0  0  0  0  0  0  0  0  0  0  0  0
   -2.8798    0.0218   -1.7843 C   0  0  1  0  0  0  0  0  0  0  0  0
   -3.3257    0.5952   -2.5970 H   0  0  0  0  0  0  0  0  0  0  0  0
   -1.4105   -0.2575   -2.1250 C   0  0  0  0  0  0  0  0  0  0  0  0
   -0.7325    1.0516   -2.3858 C   0  0  0  0  0  0  0  0  0  0  0  0
   -0.7942    1.9930   -1.2048 C   0  0  1  0  0  0  0  0  0  0  0  0
   -2.2327    2.1979   -0.6971 C   0  0  2  0  0  0  0  0  0  0  0  0
   -2.8029    2.8741   -1.3341 H   0  0  0  0  0  0  0  0  0  0  0  0
   -1.9836    2.7881    0.7226 C   0  0  0  0  0  0  0  0  0  0  0  0
   -0.7746    1.9825    1.2515 C   0  0  0  0  0  0  0  0  0  0  0  0
   -0.0179    1.4678    0.0101 C   0  0  1  0  0  0  0  0  0  0  0  0
    0.0021   -0.0041    0.0020 C   0  0  0  0  0  0  0  0  0  0  0  0
    0.0180   -1.1779   -0.0044 C   0  0  0  0  0  0  0  0  0  0  0  0
    1.3169    1.9781    0.0001 O   0  0  0  0  0  0  0  0  0  0  0  0
   -0.2149    3.3479   -1.6165 C   0  0  0  0  0  0  0  0  0  0  0  0
   -5.3056   -5.0584   -0.2968 C   0  0  0  0  0  0  0  0  0  0  0  0
   -6.5466   -4.8048    0.5614 C   0  0  0  0  0  0  0  0  0  0  0  0
   -5.7079   -5.8157   -1.5639 C   0  0  0  0  0  0  0  0  0  0  0  0
   -4.3131   -5.8794    0.4854 C   0  0  0  0  0  0  0  0  0  0  0  0
   -3.2105   -5.4400    0.7115 O   0  0  0  0  0  0  0  0  0  0  0  0
   -3.6086   -1.6055   -3.7819 H   0  0  0  0  0  0  0  0  0  0  0  0
   -4.8840   -2.4923   -2.9128 H   0  0  0  0  0  0  0  0  0  0  0  0
   -5.0390   -0.7384   -3.1734 H   0  0  0  0  0  0  0  0  0  0  0  0
   -1.8702   -2.4425   -2.1666 H   0  0  0  0  0  0  0  0  0  0  0  0
   -2.2207   -2.3769   -0.4199 H   0  0  0  0  0  0  0  0  0  0  0  0
   -3.7278   -3.9268   -2.5630 H   0  0  0  0  0  0  0  0  0  0  0  0
   -2.8077   -4.5914   -1.1988 H   0  0  0  0  0  0  0  0  0  0  0  0
   -6.1518   -2.6875    0.3559 H   0  0  0  0  0  0  0  0  0  0  0  0
   -5.7992   -0.3576    0.8721 H   0  0  0  0  0  0  0  0  0  0  0  0
   -4.4689    1.7132    0.7523 H   0  0  0  0  0  0  0  0  0  0  0  0
   -4.9013    1.6271   -0.9759 H   0  0  0  0  0  0  0  0  0  0  0  0
   -0.9275   -0.7541   -1.2834 H   0  0  0  0  0  0  0  0  0  0  0  0
   -1.3539   -0.8946   -3.0076 H   0  0  0  0  0  0  0  0  0  0  0  0
   -1.2138    1.5221   -3.2432 H   0  0  0  0  0  0  0  0  0  0  0  0
    0.3111    0.8512   -2.6287 H   0  0  0  0  0  0  0  0  0  0  0  0
   -1.7379    3.8481    0.6586 H   0  0  0  0  0  0  0  0  0  0  0  0
   -2.8556    2.6361    1.3586 H   0  0  0  0  0  0  0  0  0  0  0  0
   -1.1196    1.1422    1.8540 H   0  0  0  0  0  0  0  0  0  0  0  0
   -0.1255    2.6266    1.8446 H   0  0  0  0  0  0  0  0  0  0  0  0
    0.0322   -2.2278   -0.0102 H   0  0  0  0  0  0  0  0  0  0  0  0
    1.8525    1.6932    0.7531 H   0  0  0  0  0  0  0  0  0  0  0  0
    0.8305    3.2251   -1.8999 H   0  0  0  0  0  0  0  0  0  0  0  0
   -0.7771    3.7412   -2.4635 H   0  0  0  0  0  0  0  0  0  0  0  0
   -0.2853    4.0426   -0.7796 H   0  0  0  0  0  0  0  0  0  0  0  0
   -7.2645   -4.2110   -0.0043 H   0  0  0  0  0  0  0  0  0  0  0  0
   -6.9994   -5.7576    0.8359 H   0  0  0  0  0  0  0  0  0  0  0  0
   -6.2600   -4.2653    1.4641 H   0  0  0  0  0  0  0  0  0  0  0  0
   -4.8238   -5.9964   -2.1753 H   0  0  0  0  0  0  0  0  0  0  0  0
   -6.1606   -6.7685   -1.2894 H   0  0  0  0  0  0  0  0  0  0  0  0
   -6.4258   -5.2219   -2.1297 H   0  0  0  0  0  0  0  0  0  0  0  0
   -4.6539   -7.0988    0.9309 O   0  5  0  0  0  0  0  0  0  0  0  0
  1  2  1  0  0  0  0
  1 31  1  0  0  0  0
  1 32  1  0  0  0  0
  1 33  1  0  0  0  0
  2  7  1  0  0  0  0
  2 12  1  0  0  0  0
  2  3  1  0  0  0  0
  3  4  1  0  0  0  0
  3 34  1  0  0  0  0
  3 35  1  0  0  0  0
  4  5  1  0  0  0  0
  4 36  1  0  0  0  0
  4 37  1  0  0  0  0
  5  6  2  0  0  0  0
  5 26  1  0  0  0  0
  6  7  1  0  0  0  0
  6 38  1  0  0  0  0
  7  8  2  0  0  0  0
  8  9  1  0  0  0  0
  8 39  1  0  0  0  0
  9 10  1  0  0  0  0
  9 40  1  0  0  0  0
  9 41  1  0  0  0  0
 10 11  1  0  0  0  0
 10 17  1  0  0  0  0
 10 12  1  0  0  0  0
 12 13  1  0  0  0  0
 12 14  1  0  0  0  0
 14 15  1  0  0  0  0
 14 42  1  0  0  0  0
 14 43  1  0  0  0  0
 15 16  1  0  0  0  0
 15 44  1  0  0  0  0
 15 45  1  0  0  0  0
 16 21  1  0  0  0  0
 16 17  1  0  0  0  0
 16 25  1  0  0  0  0
 17 18  1  0  0  0  0
 17 19  1  0  0  0  0
 19 20  1  0  0  0  0
 19 46  1  0  0  0  0
 19 47  1  0  0  0  0
 20 21  1  0  0  0  0
 20 48  1  0  0  0  0
 20 49  1  0  0  0  0
 21 22  1  0  0  0  0
 21 24  1  0  0  0  0
 22 23  3  0  0  0  0
 23 50  1  0  0  0  0
 24 51  1  0  0  0  0
 25 52  1  0  0  0  0
 25 53  1  0  0  0  0
 25 54  1  0  0  0  0
 26 27  1  0  0  0  0
 26 28  1  0  0  0  0
 26 29  1  0  0  0  0
 27 55  1  0  0  0  0
 27 56  1  0  0  0  0
 27 57  1  0  0  0  0
 28 58  1  0  0  0  0
 28 59  1  0  0  0  0
 28 60  1  0  0  0  0
 29 30  2  0  0  0  0
 29 61  1  0  0  0  0
M  CHG  1  61  -1
M  END
$$$$
ZINC03852876
  -OEChem-08230709463D

 53 54  0     0  0  0  0  0  0999 V2000
    4.8627   -3.5645    2.9348 C   0  0  0  0  0  0  0  0  0  0  0  0
    5.1675   -2.5610    1.8208 C   0  0  0  0  0  0  0  0  0  0  0  0
    4.7954   -1.2268    2.2561 O   0  0  0  0  0  0  0  0  0  0  0  0
    5.0014   -0.2184    1.3841 C   0  0  0  0  0  0  0  0  0  0  0  0
    5.4792   -0.4489    0.2893 O   0  0  0  0  0  0  0  0  0  0  0  0
    4.6501    1.1526    1.7549 C   0  0  0  0  0  0  0  0  0  0  0  0
    5.6025    2.0329    2.4040 C   0  0  0  0  0  0  0  0  0  0  0  0
    5.1686    3.2829    2.7096 C   0  0  0  0  0  0  0  0  0  0  0  0
    3.4872    3.2879    2.1235 S   0  0  0  0  0  0  0  0  0  0  0  0
    3.3887    1.6763    1.4995 C   0  0  0  0  0  0  0  0  0  0  0  0
    2.3097    1.0558    0.8961 N   0  0  0  0  0  0  0  0  0  0  0  0
    1.1507    1.7248    0.7359 C   0  0  0  0  0  0  0  0  0  0  0  0
    1.0536    2.8734    1.1218 O   0  0  0  0  0  0  0  0  0  0  0  0
   -0.0002    1.0630    0.0922 C   0  0  0  0  0  0  0  0  0  0  0  0
   -1.1160    1.7630   -0.1723 C   0  0  0  0  0  0  0  0  0  0  0  0
   -1.0278    3.2027   -0.4788 C   0  0  0  0  0  0  0  0  0  0  0  0
    0.0570    3.7225   -0.6467 O   0  0  0  0  0  0  0  0  0  0  0  0
    5.9276    4.3977    3.3820 C   0  0  0  0  0  0  0  0  0  0  0  0
    6.9799    1.5882    2.7235 C   0  0  0  0  0  0  0  0  0  0  0  0
    7.8690    1.2723    1.6971 C   0  0  0  0  0  0  0  0  0  0  0  0
    9.1516    0.8635    2.0005 C   0  0  0  0  0  0  0  0  0  0  0  0
    9.5524    0.7567    3.3203 C   0  0  0  0  0  0  0  0  0  0  0  0
    8.6730    1.0637    4.3430 C   0  0  0  0  0  0  0  0  0  0  0  0
    7.3895    1.4787    4.0517 C   0  0  0  0  0  0  0  0  0  0  0  0
   10.9525    0.3036    3.6451 C   0  0  0  0  0  0  0  0  0  0  0  0
   10.8933   -0.9766    4.4809 C   0  0  0  0  0  0  0  0  0  0  0  0
   11.7142    0.0301    2.3467 C   0  0  0  0  0  0  0  0  0  0  0  0
   11.6715    1.3972    4.4375 C   0  0  0  0  0  0  0  0  0  0  0  0
    5.1420   -4.5661    2.6080 H   0  0  0  0  0  0  0  0  0  0  0  0
    5.4317   -3.3014    3.8265 H   0  0  0  0  0  0  0  0  0  0  0  0
    3.7973   -3.5409    3.1636 H   0  0  0  0  0  0  0  0  0  0  0  0
    4.5985   -2.8242    0.9291 H   0  0  0  0  0  0  0  0  0  0  0  0
    6.2330   -2.5847    1.5920 H   0  0  0  0  0  0  0  0  0  0  0  0
    2.3872    0.1393    0.5881 H   0  0  0  0  0  0  0  0  0  0  0  0
    0.0559    0.0169   -0.1704 H   0  0  0  0  0  0  0  0  0  0  0  0
   -2.0775    1.2714   -0.1606 H   0  0  0  0  0  0  0  0  0  0  0  0
    5.2826    5.2714    3.4759 H   0  0  0  0  0  0  0  0  0  0  0  0
    6.2472    4.0739    4.3725 H   0  0  0  0  0  0  0  0  0  0  0  0
    6.8020    4.6543    2.7839 H   0  0  0  0  0  0  0  0  0  0  0  0
    7.5558    1.3510    0.6665 H   0  0  0  0  0  0  0  0  0  0  0  0
    9.8426    0.6224    1.2062 H   0  0  0  0  0  0  0  0  0  0  0  0
    8.9915    0.9788    5.3714 H   0  0  0  0  0  0  0  0  0  0  0  0
    6.7037    1.7178    4.8509 H   0  0  0  0  0  0  0  0  0  0  0  0
   10.3810   -1.7557    3.9164 H   0  0  0  0  0  0  0  0  0  0  0  0
   11.9059   -1.3043    4.7159 H   0  0  0  0  0  0  0  0  0  0  0  0
   10.3506   -0.7817    5.4059 H   0  0  0  0  0  0  0  0  0  0  0  0
   11.7564    0.9421    1.7512 H   0  0  0  0  0  0  0  0  0  0  0  0
   12.7269   -0.2976    2.5816 H   0  0  0  0  0  0  0  0  0  0  0  0
   11.2020   -0.7490    1.7821 H   0  0  0  0  0  0  0  0  0  0  0  0
   11.1289    1.5920    5.3625 H   0  0  0  0  0  0  0  0  0  0  0  0
   12.6842    1.0695    4.6725 H   0  0  0  0  0  0  0  0  0  0  0  0
   11.7138    2.3092    3.8420 H   0  0  0  0  0  0  0  0  0  0  0  0
   -2.1509    3.9417   -0.5725 O   0  5  0  0  0  0  0  0  0  0  0  0
  1  2  1  0  0  0  0
  1 29  1  0  0  0  0
  1 30  1  0  0  0  0
  1 31  1  0  0  0  0
  2  3  1  0  0  0  0
  2 32  1  0  0  0  0
  2 33  1  0  0  0  0
  3  4  1  0  0  0  0
  4  5  2  0  0  0  0
  4  6  1  0  0  0  0
  6 10  2  0  0  0  0
  6  7  1  0  0  0  0
  7  8  2  0  0  0  0
  7 19  1  0  0  0  0
  8  9  1  0  0  0  0
  8 18  1  0  0  0  0
  9 10  1  0  0  0  0
 10 11  1  0  0  0  0
 11 12  1  0  0  0  0
 11 34  1  0  0  0  0
 12 13  2  0  0  0  0
 12 14  1  0  0  0  0
 14 15  2  3  0  0  0
 14 35  1  0  0  0  0
 15 16  1  0  0  0  0
 15 36  1  0  0  0  0
 16 17  2  0  0  0  0
 16 53  1  0  0  0  0
 18 37  1  0  0  0  0
 18 38  1  0  0  0  0
 18 39  1  0  0  0  0
 19 24  2  0  0  0  0
 19 20  1  0  0  0  0
 20 21  2  0  0  0  0
 20 40  1  0  0  0  0
 21 22  1  0  0  0  0
 21 41  1  0  0  0  0
 22 23  2  0  0  0  0
 22 25  1  0  0  0  0
 23 24  1  0  0  0  0
 23 42  1  0  0  0  0
 24 43  1  0  0  0  0
 25 26  1  0  0  0  0
 25 27  1  0  0  0  0
 25 28  1  0  0  0  0
 26 44  1  0  0  0  0
 26 45  1  0  0  0  0
 26 46  1  0  0  0  0
 27 47  1  0  0  0  0
 27 48  1  0  0  0  0
 27 49  1  0  0  0  0
 28 50  1  0  0  0  0
 28 51  1  0  0  0  0
 28 52  1  0  0  0  0
M  CHG  1  53  -1
M  END
$$$$
ZINC03852877
  -OEChem-08230709463D

 47 48  0     0  0  0  0  0  0999 V2000
    5.9276    4.3977    3.3820 C   0  0  0  0  0  0  0  0  0  0  0  0
    5.1686    3.2829    2.7096 C   0  0  0  0  0  0  0  0  0  0  0  0
    5.6025    2.0329    2.4040 C   0  0  0  0  0  0  0  0  0  0  0  0
    4.6501    1.1526    1.7549 C   0  0  0  0  0  0  0  0  0  0  0  0
    3.3887    1.6763    1.4995 C   0  0  0  0  0  0  0  0  0  0  0  0
    3.4872    3.2879    2.1235 S   0  0  0  0  0  0  0  0  0  0  0  0
    2.3097    1.0558    0.8961 N   0  0  0  0  0  0  0  0  0  0  0  0
    1.1507    1.7248    0.7359 C   0  0  0  0  0  0  0  0  0  0  0  0
    1.0536    2.8734    1.1218 O   0  0  0  0  0  0  0  0  0  0  0  0
   -0.0002    1.0630    0.0922 C   0  0  0  0  0  0  0  0  0  0  0  0
   -1.1160    1.7630   -0.1723 C   0  0  0  0  0  0  0  0  0  0  0  0
   -1.0278    3.2027   -0.4788 C   0  0  0  0  0  0  0  0  0  0  0  0
    0.0570    3.7225   -0.6467 O   0  0  0  0  0  0  0  0  0  0  0  0
    5.0014   -0.2184    1.3841 C   0  0  0  0  0  0  0  0  0  0  0  0
    5.4792   -0.4489    0.2893 O   0  0  0  0  0  0  0  0  0  0  0  0
    4.7954   -1.2268    2.2561 O   0  0  0  0  0  0  0  0  0  0  0  0
    5.1675   -2.5610    1.8208 C   0  0  0  0  0  0  0  0  0  0  0  0
    6.9799    1.5882    2.7235 C   0  0  0  0  0  0  0  0  0  0  0  0
    7.8690    1.2723    1.6971 C   0  0  0  0  0  0  0  0  0  0  0  0
    9.1516    0.8635    2.0005 C   0  0  0  0  0  0  0  0  0  0  0  0
    9.5524    0.7567    3.3203 C   0  0  0  0  0  0  0  0  0  0  0  0
    8.6730    1.0637    4.3430 C   0  0  0  0  0  0  0  0  0  0  0  0
    7.3895    1.4787    4.0517 C   0  0  0  0  0  0  0  0  0  0  0  0
   10.9528    0.3045    3.6451 C   0  0  0  0  0  0  0  0  0  0  0  0
   11.1822   -1.0959    3.0732 C   0  0  0  0  0  0  0  0  0  0  0  0
   11.9591    1.2783    3.0285 C   0  0  0  0  0  0  0  0  0  0  0  0
    5.2826    5.2714    3.4759 H   0  0  0  0  0  0  0  0  0  0  0  0
    6.2472    4.0739    4.3725 H   0  0  0  0  0  0  0  0  0  0  0  0
    6.8020    4.6543    2.7839 H   0  0  0  0  0  0  0  0  0  0  0  0
    2.3872    0.1393    0.5881 H   0  0  0  0  0  0  0  0  0  0  0  0
    0.0559    0.0169   -0.1704 H   0  0  0  0  0  0  0  0  0  0  0  0
   -2.0775    1.2714   -0.1606 H   0  0  0  0  0  0  0  0  0  0  0  0
    4.9504   -3.2759    2.6145 H   0  0  0  0  0  0  0  0  0  0  0  0
    4.5985   -2.8242    0.9291 H   0  0  0  0  0  0  0  0  0  0  0  0
    6.2330   -2.5847    1.5920 H   0  0  0  0  0  0  0  0  0  0  0  0
    7.5558    1.3510    0.6665 H   0  0  0  0  0  0  0  0  0  0  0  0
    9.8426    0.6224    1.2062 H   0  0  0  0  0  0  0  0  0  0  0  0
    8.9913    0.9782    5.3714 H   0  0  0  0  0  0  0  0  0  0  0  0
    6.7037    1.7178    4.8509 H   0  0  0  0  0  0  0  0  0  0  0  0
   11.0855    0.2815    4.7267 H   0  0  0  0  0  0  0  0  0  0  0  0
   11.0495   -1.0729    1.9915 H   0  0  0  0  0  0  0  0  0  0  0  0
   12.1951   -1.4230    3.3081 H   0  0  0  0  0  0  0  0  0  0  0  0
   10.4653   -1.7896    3.5125 H   0  0  0  0  0  0  0  0  0  0  0  0
   11.7957    2.2760    3.4359 H   0  0  0  0  0  0  0  0  0  0  0  0
   12.9720    0.9512    3.2634 H   0  0  0  0  0  0  0  0  0  0  0  0
   11.8264    1.3013    1.9468 H   0  0  0  0  0  0  0  0  0  0  0  0
   -2.1509    3.9417   -0.5725 O   0  5  0  0  0  0  0  0  0  0  0  0
  1  2  1  0  0  0  0
  1 27  1  0  0  0  0
  1 28  1  0  0  0  0
  1 29  1  0  0  0  0
  2  6  1  0  0  0  0
  2  3  2  0  0  0  0
  3  4  1  0  0  0  0
  3 18  1  0  0  0  0
  4  5  2  0  0  0  0
  4 14  1  0  0  0  0
  5  6  1  0  0  0  0
  5  7  1  0  0  0  0
  7  8  1  0  0  0  0
  7 30  1  0  0  0  0
  8  9  2  0  0  0  0
  8 10  1  0  0  0  0
 10 11  2  3  0  0  0
 10 31  1  0  0  0  0
 11 12  1  0  0  0  0
 11 32  1  0  0  0  0
 12 13  2  0  0  0  0
 12 47  1  0  0  0  0
 14 15  2  0  0  0  0
 14 16  1  0  0  0  0
 16 17  1  0  0  0  0
 17 33  1  0  0  0  0
 17 34  1  0  0  0  0
 17 35  1  0  0  0  0
 18 23  2  0  0  0  0
 18 19  1  0  0  0  0
 19 20  2  0  0  0  0
 19 36  1  0  0  0  0
 20 21  1  0  0  0  0
 20 37  1  0  0  0  0
 21 22  2  0  0  0  0
 21 24  1  0  0  0  0
 22 23  1  0  0  0  0
 22 38  1  0  0  0  0
 23 39  1  0  0  0  0
 24 25  1  0  0  0  0
 24 26  1  0  0  0  0
 24 40  1  0  0  0  0
 25 41  1  0  0  0  0
 25 42  1  0  0  0  0
 25 43  1  0  0  0  0
 26 44  1  0  0  0  0
 26 45  1  0  0  0  0
 26 46  1  0  0  0  0
M  CHG  1  47  -1
M  END
$$$$
ZINC03852879
  -OEChem-08230709463D

 53 54  0     0  0  0  0  0  0999 V2000
    4.8627   -3.5645    2.9348 C   0  0  0  0  0  0  0  0  0  0  0  0
    5.1675   -2.5610    1.8208 C   0  0  0  0  0  0  0  0  0  0  0  0
    4.7954   -1.2268    2.2561 O   0  0  0  0  0  0  0  0  0  0  0  0
    5.0014   -0.2184    1.3841 C   0  0  0  0  0  0  0  0  0  0  0  0
    5.4792   -0.4489    0.2893 O   0  0  0  0  0  0  0  0  0  0  0  0
    4.6501    1.1526    1.7549 C   0  0  0  0  0  0  0  0  0  0  0  0
    5.6025    2.0329    2.4040 C   0  0  0  0  0  0  0  0  0  0  0  0
    5.1686    3.2829    2.7096 C   0  0  0  0  0  0  0  0  0  0  0  0
    3.4872    3.2879    2.1235 S   0  0  0  0  0  0  0  0  0  0  0  0
    3.3887    1.6763    1.4995 C   0  0  0  0  0  0  0  0  0  0  0  0
    2.3097    1.0558    0.8961 N   0  0  0  0  0  0  0  0  0  0  0  0
    1.1507    1.7248    0.7359 C   0  0  0  0  0  0  0  0  0  0  0  0
    1.0536    2.8734    1.1218 O   0  0  0  0  0  0  0  0  0  0  0  0
   -0.0002    1.0630    0.0922 C   0  0  0  0  0  0  0  0  0  0  0  0
   -1.1160    1.7630   -0.1723 C   0  0  0  0  0  0  0  0  0  0  0  0
   -1.0278    3.2027   -0.4788 C   0  0  0  0  0  0  0  0  0  0  0  0
    0.0570    3.7225   -0.6467 O   0  0  0  0  0  0  0  0  0  0  0  0
    5.9276    4.3977    3.3820 C   0  0  0  0  0  0  0  0  0  0  0  0
    6.9799    1.5882    2.7235 C   0  0  0  0  0  0  0  0  0  0  0  0
    7.8690    1.2723    1.6971 C   0  0  0  0  0  0  0  0  0  0  0  0
    9.1516    0.8635    2.0005 C   0  0  0  0  0  0  0  0  0  0  0  0
    9.5524    0.7567    3.3203 C   0  0  0  0  0  0  0  0  0  0  0  0
    8.6730    1.0637    4.3430 C   0  0  0  0  0  0  0  0  0  0  0  0
    7.3895    1.4787    4.0517 C   0  0  0  0  0  0  0  0  0  0  0  0
   10.9525    0.3036    3.6451 C   0  0  0  0  0  0  0  0  0  0  0  0
   10.9770   -1.2203    3.7801 C   0  0  0  0  0  0  0  0  0  0  0  0
   10.6488   -1.8574    2.4283 C   0  0  0  0  0  0  0  0  0  0  0  0
   12.3680   -1.6700    4.2316 C   0  0  0  0  0  0  0  0  0  0  0  0
    5.1420   -4.5661    2.6080 H   0  0  0  0  0  0  0  0  0  0  0  0
    5.4317   -3.3014    3.8265 H   0  0  0  0  0  0  0  0  0  0  0  0
    3.7973   -3.5409    3.1636 H   0  0  0  0  0  0  0  0  0  0  0  0
    4.5985   -2.8242    0.9291 H   0  0  0  0  0  0  0  0  0  0  0  0
    6.2330   -2.5847    1.5920 H   0  0  0  0  0  0  0  0  0  0  0  0
    2.3872    0.1393    0.5881 H   0  0  0  0  0  0  0  0  0  0  0  0
    0.0559    0.0169   -0.1704 H   0  0  0  0  0  0  0  0  0  0  0  0
   -2.0775    1.2714   -0.1606 H   0  0  0  0  0  0  0  0  0  0  0  0
    5.2826    5.2714    3.4759 H   0  0  0  0  0  0  0  0  0  0  0  0
    6.2472    4.0739    4.3725 H   0  0  0  0  0  0  0  0  0  0  0  0
    6.8020    4.6543    2.7839 H   0  0  0  0  0  0  0  0  0  0  0  0
    7.5558    1.3510    0.6665 H   0  0  0  0  0  0  0  0  0  0  0  0
    9.8426    0.6224    1.2062 H   0  0  0  0  0  0  0  0  0  0  0  0
    8.9913    0.9782    5.3714 H   0  0  0  0  0  0  0  0  0  0  0  0
    6.7037    1.7178    4.8509 H   0  0  0  0  0  0  0  0  0  0  0  0
   11.6278    0.6084    2.8456 H   0  0  0  0  0  0  0  0  0  0  0  0
   11.2725    0.7566    4.5834 H   0  0  0  0  0  0  0  0  0  0  0  0
   10.2373   -1.5316    4.5177 H   0  0  0  0  0  0  0  0  0  0  0  0
   10.6662   -2.9430    2.5245 H   0  0  0  0  0  0  0  0  0  0  0  0
    9.6578   -1.5370    2.1067 H   0  0  0  0  0  0  0  0  0  0  0  0
   11.3885   -1.5460    1.6907 H   0  0  0  0  0  0  0  0  0  0  0  0
   12.6018   -1.2161    5.1946 H   0  0  0  0  0  0  0  0  0  0  0  0
   12.3854   -2.7556    4.3277 H   0  0  0  0  0  0  0  0  0  0  0  0
   13.1077   -1.3586    3.4940 H   0  0  0  0  0  0  0  0  0  0  0  0
   -2.1509    3.9417   -0.5725 O   0  5  0  0  0  0  0  0  0  0  0  0
  1  2  1  0  0  0  0
  1 29  1  0  0  0  0
  1 30  1  0  0  0  0
  1 31  1  0  0  0  0
  2  3  1  0  0  0  0
  2 32  1  0  0  0  0
  2 33  1  0  0  0  0
  3  4  1  0  0  0  0
  4  5  2  0  0  0  0
  4  6  1  0  0  0  0
  6 10  2  0  0  0  0
  6  7  1  0  0  0  0
  7  8  2  0  0  0  0
  7 19  1  0  0  0  0
  8  9  1  0  0  0  0
  8 18  1  0  0  0  0
  9 10  1  0  0  0  0
 10 11  1  0  0  0  0
 11 12  1  0  0  0  0
 11 34  1  0  0  0  0
 12 13  2  0  0  0  0
 12 14  1  0  0  0  0
 14 15  2  3  0  0  0
 14 35  1  0  0  0  0
 15 16  1  0  0  0  0
 15 36  1  0  0  0  0
 16 17  2  0  0  0  0
 16 53  1  0  0  0  0
 18 37  1  0  0  0  0
 18 38  1  0  0  0  0
 18 39  1  0  0  0  0
 19 24  2  0  0  0  0
 19 20  1  0  0  0  0
 20 21  2  0  0  0  0
 20 40  1  0  0  0  0
 21 22  1  0  0  0  0
 21 41  1  0  0  0  0
 22 23  2  0  0  0  0
 22 25  1  0  0  0  0
 23 24  1  0  0  0  0
 23 42  1  0  0  0  0
 24 43  1  0  0  0  0
 25 26  1  0  0  0  0
 25 44  1  0  0  0  0
 25 45  1  0  0  0  0
 26 27  1  0  0  0  0
 26 28  1  0  0  0  0
 26 46  1  0  0  0  0
 27 47  1  0  0  0  0
 27 48  1  0  0  0  0
 27 49  1  0  0  0  0
 28 50  1  0  0  0  0
 28 51  1  0  0  0  0
 28 52  1  0  0  0  0
M  CHG  1  53  -1
M  END
$$$$
ZINC03852881
  -OEChem-08230709463D

 47 48  0     0  0  0  0  0  0999 V2000
   -8.9253   -1.7860    1.3566 C   0  0  0  0  0  0  0  0  0  0  0  0
   -8.1501   -1.9722    0.0507 C   0  0  0  0  0  0  0  0  0  0  0  0
   -6.8141   -2.4584    0.3460 O   0  0  0  0  0  0  0  0  0  0  0  0
   -5.9957   -2.6764   -0.7039 C   0  0  0  0  0  0  0  0  0  0  0  0
   -6.3889   -2.4655   -1.8357 O   0  0  0  0  0  0  0  0  0  0  0  0
   -4.6353   -3.1664   -0.4816 C   0  0  0  0  0  0  0  0  0  0  0  0
   -4.3336   -4.5845   -0.4465 C   0  0  0  0  0  0  0  0  0  0  0  0
   -3.0383   -4.9280   -0.2265 C   0  0  0  0  0  0  0  0  0  0  0  0
   -2.2175   -3.3553   -0.0739 S   0  0  0  0  0  0  0  0  0  0  0  0
   -3.5679   -2.2959   -0.2980 C   0  0  0  0  0  0  0  0  0  0  0  0
   -3.5821   -0.9128   -0.2902 N   0  0  0  0  0  0  0  0  0  0  0  0
   -2.4387   -0.2282   -0.0892 C   0  0  0  0  0  0  0  0  0  0  0  0
   -1.3949   -0.8263    0.0852 O   0  0  0  0  0  0  0  0  0  0  0  0
   -2.4539    1.2472   -0.0809 C   0  0  0  0  0  0  0  0  0  0  0  0
   -1.2976    1.9307   -0.0506 C   0  0  0  0  0  0  0  0  0  0  0  0
   -0.0894    1.3639   -0.6778 C   0  0  0  0  0  0  0  0  0  0  0  0
   -0.1630    0.3326   -1.3152 O   0  0  0  0  0  0  0  0  0  0  0  0
   -2.4399   -6.3079   -0.1332 C   0  0  0  0  0  0  0  0  0  0  0  0
   -5.3883   -5.6087   -0.6352 C   0  0  0  0  0  0  0  0  0  0  0  0
   -6.4193   -5.7315    0.2956 C   0  0  0  0  0  0  0  0  0  0  0  0
   -7.3986   -6.6864    0.1144 C   0  0  0  0  0  0  0  0  0  0  0  0
   -7.3592   -7.5209   -0.9886 C   0  0  0  0  0  0  0  0  0  0  0  0
   -6.3391   -7.4038   -1.9152 C   0  0  0  0  0  0  0  0  0  0  0  0
   -5.3567   -6.4491   -1.7471 C   0  0  0  0  0  0  0  0  0  0  0  0
   -6.3032   -8.3168   -3.1136 C   0  0  0  0  0  0  0  0  0  0  0  0
   -8.4324   -8.5612   -1.1813 C   0  0  0  0  0  0  0  0  0  0  0  0
   -8.9931   -2.7407    1.8782 H   0  0  0  0  0  0  0  0  0  0  0  0
   -8.4068   -1.0636    1.9870 H   0  0  0  0  0  0  0  0  0  0  0  0
   -9.9281   -1.4210    1.1349 H   0  0  0  0  0  0  0  0  0  0  0  0
   -8.0822   -1.0176   -0.4709 H   0  0  0  0  0  0  0  0  0  0  0  0
   -8.6685   -2.6947   -0.5797 H   0  0  0  0  0  0  0  0  0  0  0  0
   -4.4151   -0.4355   -0.4294 H   0  0  0  0  0  0  0  0  0  0  0  0
   -3.3944    1.7777   -0.0992 H   0  0  0  0  0  0  0  0  0  0  0  0
   -1.2530    2.8953    0.4331 H   0  0  0  0  0  0  0  0  0  0  0  0
   -1.3687   -6.2277    0.0516 H   0  0  0  0  0  0  0  0  0  0  0  0
   -2.9099   -6.8532    0.6853 H   0  0  0  0  0  0  0  0  0  0  0  0
   -2.6083   -6.8410   -1.0689 H   0  0  0  0  0  0  0  0  0  0  0  0
   -6.4514   -5.0802    1.1565 H   0  0  0  0  0  0  0  0  0  0  0  0
   -8.1975   -6.7825    0.8346 H   0  0  0  0  0  0  0  0  0  0  0  0
   -4.5630   -6.3555   -2.4736 H   0  0  0  0  0  0  0  0  0  0  0  0
   -6.8557   -7.8604   -3.9348 H   0  0  0  0  0  0  0  0  0  0  0  0
   -5.2687   -8.4778   -3.4169 H   0  0  0  0  0  0  0  0  0  0  0  0
   -6.7591   -9.2727   -2.8558 H   0  0  0  0  0  0  0  0  0  0  0  0
   -9.2519   -8.1350   -1.7599 H   0  0  0  0  0  0  0  0  0  0  0  0
   -8.0176   -9.4167   -1.7144 H   0  0  0  0  0  0  0  0  0  0  0  0
   -8.8039   -8.8844   -0.2088 H   0  0  0  0  0  0  0  0  0  0  0  0
    1.0953    1.9931   -0.5484 O   0  5  0  0  0  0  0  0  0  0  0  0
  1  2  1  0  0  0  0
  1 27  1  0  0  0  0
  1 28  1  0  0  0  0
  1 29  1  0  0  0  0
  2  3  1  0  0  0  0
  2 30  1  0  0  0  0
  2 31  1  0  0  0  0
  3  4  1  0  0  0  0
  4  5  2  0  0  0  0
  4  6  1  0  0  0  0
  6 10  2  0  0  0  0
  6  7  1  0  0  0  0
  7  8  2  0  0  0  0
  7 19  1  0  0  0  0
  8  9  1  0  0  0  0
  8 18  1  0  0  0  0
  9 10  1  0  0  0  0
 10 11  1  0  0  0  0
 11 12  1  0  0  0  0
 11 32  1  0  0  0  0
 12 13  2  0  0  0  0
 12 14  1  0  0  0  0
 14 15  2  3  0  0  0
 14 33  1  0  0  0  0
 15 16  1  0  0  0  0
 15 34  1  0  0  0  0
 16 17  2  0  0  0  0
 16 47  1  0  0  0  0
 18 35  1  0  0  0  0
 18 36  1  0  0  0  0
 18 37  1  0  0  0  0
 19 24  2  0  0  0  0
 19 20  1  0  0  0  0
 20 21  2  0  0  0  0
 20 38  1  0  0  0  0
 21 22  1  0  0  0  0
 21 39  1  0  0  0  0
 22 23  2  0  0  0  0
 22 26  1  0  0  0  0
 23 24  1  0  0  0  0
 23 25  1  0  0  0  0
 24 40  1  0  0  0  0
 25 41  1  0  0  0  0
 25 42  1  0  0  0  0
 25 43  1  0  0  0  0
 26 44  1  0  0  0  0
 26 45  1  0  0  0  0
 26 46  1  0  0  0  0
M  CHG  1  47  -1
M  END
$$$$
ZINC03852888
  -OEChem-08230709463D

 54 56  0     0  0  0  0  0  0999 V2000
    3.6826    0.5049    0.3845 C   0  0  0  0  0  0  0  0  0  0  0  0
    2.1965    0.3068    0.0794 C   0  0  0  0  0  0  0  0  0  0  0  0
    1.4963    1.5682    0.2435 O   0  0  0  0  0  0  0  0  0  0  0  0
    0.1676    1.5660    0.0105 C   0  0  0  0  0  0  0  0  0  0  0  0
   -0.3900    0.5369   -0.3210 O   0  0  0  0  0  0  0  0  0  0  0  0
   -0.6016    2.8025    0.1505 C   0  0  0  0  0  0  0  0  0  0  0  0
   -0.7842    3.7150   -0.9618 C   0  0  0  0  0  0  0  0  0  0  0  0
   -1.5208    4.8304   -0.7220 C   0  0  0  0  0  0  0  0  0  0  0  0
   -1.9605    4.6697    0.9959 S   0  0  0  0  0  0  0  0  0  0  0  0
   -1.1885    3.1631    1.3572 C   0  0  0  0  0  0  0  0  0  0  0  0
   -1.1615    2.4813    2.5604 N   0  0  0  0  0  0  0  0  0  0  0  0
   -1.7941    2.9888    3.6369 C   0  0  0  0  0  0  0  0  0  0  0  0
   -2.3884    4.0456    3.5504 O   0  0  0  0  0  0  0  0  0  0  0  0
   -1.7653    2.2615    4.9204 C   0  0  0  0  0  0  0  0  0  0  0  0
   -2.4937    2.7032    5.9593 C   0  0  0  0  0  0  0  0  0  0  0  0
   -3.7637    3.4134    5.7203 C   0  0  0  0  0  0  0  0  0  0  0  0
   -4.2284    3.4661    4.5994 O   0  0  0  0  0  0  0  0  0  0  0  0
   -0.2001    3.4410   -2.2963 C   0  0  0  0  0  0  0  0  0  0  0  0
    1.1484    3.1070   -2.4148 C   0  0  0  0  0  0  0  0  0  0  0  0
    1.6855    2.8483   -3.6593 C   0  0  0  0  0  0  0  0  0  0  0  0
    0.8912    2.9301   -4.7890 C   0  0  0  0  0  0  0  0  0  0  0  0
   -0.4461    3.2662   -4.6782 C   0  0  0  0  0  0  0  0  0  0  0  0
   -0.9956    3.5219   -3.4384 C   0  0  0  0  0  0  0  0  0  0  0  0
    1.4851    2.6515   -6.1458 C   0  0  0  0  0  0  0  0  0  0  0  0
    2.0331    1.2234   -6.1791 C   0  0  0  0  0  0  0  0  0  0  0  0
    2.6361    0.9406   -7.5566 C   0  0  0  0  0  0  0  0  0  0  0  0
    3.7716    1.9292   -7.8290 C   0  0  0  0  0  0  0  0  0  0  0  0
    3.2236    3.3572   -7.7956 C   0  0  0  0  0  0  0  0  0  0  0  0
    2.6206    3.6401   -6.4182 C   0  0  0  0  0  0  0  0  0  0  0  0
    3.7995    0.8546    1.4103 H   0  0  0  0  0  0  0  0  0  0  0  0
    4.2082   -0.4420    0.2613 H   0  0  0  0  0  0  0  0  0  0  0  0
    4.0989    1.2434   -0.3007 H   0  0  0  0  0  0  0  0  0  0  0  0
    1.7802   -0.4316    0.7646 H   0  0  0  0  0  0  0  0  0  0  0  0
    2.0797   -0.0428   -0.9464 H   0  0  0  0  0  0  0  0  0  0  0  0
   -1.7747    5.6258   -1.4070 H   0  0  0  0  0  0  0  0  0  0  0  0
   -0.6872    1.6380    2.6295 H   0  0  0  0  0  0  0  0  0  0  0  0
   -1.1587    1.3740    5.0247 H   0  0  0  0  0  0  0  0  0  0  0  0
   -2.1491    2.5381    6.9694 H   0  0  0  0  0  0  0  0  0  0  0  0
    1.7704    3.0472   -1.5339 H   0  0  0  0  0  0  0  0  0  0  0  0
    2.7289    2.5854   -3.7520 H   0  0  0  0  0  0  0  0  0  0  0  0
   -1.0613    3.3289   -5.5636 H   0  0  0  0  0  0  0  0  0  0  0  0
   -2.0397    3.7845   -3.3531 H   0  0  0  0  0  0  0  0  0  0  0  0
    0.7152    2.7632   -6.9093 H   0  0  0  0  0  0  0  0  0  0  0  0
    2.8030    1.1118   -5.4157 H   0  0  0  0  0  0  0  0  0  0  0  0
    1.2241    0.5192   -5.9851 H   0  0  0  0  0  0  0  0  0  0  0  0
    1.8662    1.0523   -8.3201 H   0  0  0  0  0  0  0  0  0  0  0  0
    3.0265   -0.0768   -7.5804 H   0  0  0  0  0  0  0  0  0  0  0  0
    4.2012    1.7277   -8.8103 H   0  0  0  0  0  0  0  0  0  0  0  0
    4.5415    1.8175   -7.0655 H   0  0  0  0  0  0  0  0  0  0  0  0
    2.4537    3.4689   -8.5591 H   0  0  0  0  0  0  0  0  0  0  0  0
    4.0326    4.0615   -7.9897 H   0  0  0  0  0  0  0  0  0  0  0  0
    2.2302    4.6575   -6.3944 H   0  0  0  0  0  0  0  0  0  0  0  0
    3.3905    3.5284   -5.6547 H   0  0  0  0  0  0  0  0  0  0  0  0
   -4.4088    4.0039    6.7457 O   0  5  0  0  0  0  0  0  0  0  0  0
  1  2  1  0  0  0  0
  1 30  1  0  0  0  0
  1 31  1  0  0  0  0
  1 32  1  0  0  0  0
  2  3  1  0  0  0  0
  2 33  1  0  0  0  0
  2 34  1  0  0  0  0
  3  4  1  0  0  0  0
  4  5  2  0  0  0  0
  4  6  1  0  0  0  0
  6 10  2  0  0  0  0
  6  7  1  0  0  0  0
  7  8  2  0  0  0  0
  7 18  1  0  0  0  0
  8  9  1  0  0  0  0
  8 35  1  0  0  0  0
  9 10  1  0  0  0  0
 10 11  1  0  0  0  0
 11 12  1  0  0  0  0
 11 36  1  0  0  0  0
 12 13  2  0  0  0  0
 12 14  1  0  0  0  0
 14 15  2  3  0  0  0
 14 37  1  0  0  0  0
 15 16  1  0  0  0  0
 15 38  1  0  0  0  0
 16 17  2  0  0  0  0
 16 54  1  0  0  0  0
 18 23  2  0  0  0  0
 18 19  1  0  0  0  0
 19 20  2  0  0  0  0
 19 39  1  0  0  0  0
 20 21  1  0  0  0  0
 20 40  1  0  0  0  0
 21 22  2  0  0  0  0
 21 24  1  0  0  0  0
 22 23  1  0  0  0  0
 22 41  1  0  0  0  0
 23 42  1  0  0  0  0
 24 29  1  0  0  0  0
 24 25  1  0  0  0  0
 24 43  1  0  0  0  0
 25 26  1  0  0  0  0
 25 44  1  0  0  0  0
 25 45  1  0  0  0  0
 26 27  1  0  0  0  0
 26 46  1  0  0  0  0
 26 47  1  0  0  0  0
 27 28  1  0  0  0  0
 27 48  1  0  0  0  0
 27 49  1  0  0  0  0
 28 29  1  0  0  0  0
 28 50  1  0  0  0  0
 28 51  1  0  0  0  0
 29 52  1  0  0  0  0
 29 53  1  0  0  0  0
M  CHG  1  54  -1
M  END
$$$$
ZINC03852977
  -OEChem-08230709463D

 53 54  0     1  0  0  0  0  0999 V2000
    2.9391   -4.2443    1.6759 C   0  0  0  0  0  0  0  0  0  0  0  0
    2.5856   -3.7001    0.2903 C   0  0  0  0  0  0  0  0  0  0  0  0
    2.1292   -2.3271    0.4116 O   0  0  0  0  0  0  0  0  0  0  0  0
    1.7758   -1.6964   -0.7271 C   0  0  0  0  0  0  0  0  0  0  0  0
    1.8474   -2.2791   -1.7924 O   0  0  0  0  0  0  0  0  0  0  0  0
    1.3058   -0.3101   -0.6808 C   0  0  0  0  0  0  0  0  0  0  0  0
    2.2312    0.8039   -0.7976 C   0  0  0  0  0  0  0  0  0  0  0  0
    1.6665    2.0298   -0.7388 C   0  0  0  0  0  0  0  0  0  0  0  0
   -0.0645    1.7219   -0.5316 S   0  0  0  0  0  0  0  0  0  0  0  0
   -0.0419   -0.0106   -0.5231 C   0  0  0  0  0  0  0  0  0  0  0  0
   -1.1071   -0.8838   -0.3917 N   0  0  0  0  0  0  0  0  0  0  0  0
   -2.3580   -0.4037   -0.2465 C   0  0  0  0  0  0  0  0  0  0  0  0
   -2.5505    0.7965   -0.2311 O   0  0  0  0  0  0  0  0  0  0  0  0
   -3.4940   -1.3349   -0.1064 C   0  0  0  0  0  0  0  0  0  0  0  0
   -4.7256   -0.8594    0.1428 C   0  0  0  0  0  0  0  0  0  0  0  0
   -4.9713    0.6274    0.1538 C   0  0  0  0  0  0  0  0  0  0  0  0
   -5.8369   -1.7923    0.4056 C   0  0  0  0  0  0  0  0  0  0  0  0
   -5.6388   -2.9907    0.3968 O   0  0  0  0  0  0  0  0  0  0  0  0
    2.3651    3.3513   -0.8311 C   0  0  0  0  0  0  0  0  0  0  0  0
    3.7800    3.1132   -1.3783 C   0  0  2  0  0  0  0  0  0  0  0  0
    3.7265    2.8585   -2.4368 H   0  0  0  0  0  0  0  0  0  0  0  0
    4.4206    1.9576   -0.6040 C   0  0  0  0  0  0  0  0  0  0  0  0
    3.7359    0.6407   -0.9741 C   0  0  0  0  0  0  0  0  0  0  0  0
    4.6196    4.3794   -1.1974 C   0  0  0  0  0  0  0  0  0  0  0  0
    6.0336    4.1338   -1.7277 C   0  0  0  0  0  0  0  0  0  0  0  0
    3.9775    5.5321   -1.9719 C   0  0  0  0  0  0  0  0  0  0  0  0
    4.6874    4.7385    0.2883 C   0  0  0  0  0  0  0  0  0  0  0  0
    3.7302   -3.6359    2.1142 H   0  0  0  0  0  0  0  0  0  0  0  0
    2.0573   -4.2097    2.3156 H   0  0  0  0  0  0  0  0  0  0  0  0
    3.2817   -5.2751    1.5848 H   0  0  0  0  0  0  0  0  0  0  0  0
    1.7945   -4.3085   -0.1481 H   0  0  0  0  0  0  0  0  0  0  0  0
    3.4674   -3.7347   -0.3495 H   0  0  0  0  0  0  0  0  0  0  0  0
   -0.9535   -1.8415   -0.4040 H   0  0  0  0  0  0  0  0  0  0  0  0
   -3.3355   -2.3987   -0.2042 H   0  0  0  0  0  0  0  0  0  0  0  0
   -4.6928    1.0488   -0.8120 H   0  0  0  0  0  0  0  0  0  0  0  0
   -6.0273    0.8197    0.3433 H   0  0  0  0  0  0  0  0  0  0  0  0
   -4.3715    1.0890    0.9382 H   0  0  0  0  0  0  0  0  0  0  0  0
    2.4256    3.8046    0.1583 H   0  0  0  0  0  0  0  0  0  0  0  0
    1.8172    4.0107   -1.5042 H   0  0  0  0  0  0  0  0  0  0  0  0
    4.3114    2.1343    0.4661 H   0  0  0  0  0  0  0  0  0  0  0  0
    5.4799    1.8977   -0.8536 H   0  0  0  0  0  0  0  0  0  0  0  0
    4.0963   -0.1545   -0.3215 H   0  0  0  0  0  0  0  0  0  0  0  0
    3.9573    0.3929   -2.0122 H   0  0  0  0  0  0  0  0  0  0  0  0
    5.9853    3.8780   -2.7862 H   0  0  0  0  0  0  0  0  0  0  0  0
    6.6317    5.0359   -1.5989 H   0  0  0  0  0  0  0  0  0  0  0  0
    6.4911    3.3126   -1.1760 H   0  0  0  0  0  0  0  0  0  0  0  0
    2.9701    5.7070   -1.5941 H   0  0  0  0  0  0  0  0  0  0  0  0
    4.5756    6.4341   -1.8431 H   0  0  0  0  0  0  0  0  0  0  0  0
    3.9292    5.2763   -3.0304 H   0  0  0  0  0  0  0  0  0  0  0  0
    5.1448    3.9173    0.8401 H   0  0  0  0  0  0  0  0  0  0  0  0
    5.2855    5.6406    0.4172 H   0  0  0  0  0  0  0  0  0  0  0  0
    3.6800    4.9135    0.6661 H   0  0  0  0  0  0  0  0  0  0  0  0
   -7.0723   -1.3154    0.6556 O   0  5  0  0  0  0  0  0  0  0  0  0
  1  2  1  0  0  0  0
  1 28  1  0  0  0  0
  1 29  1  0  0  0  0
  1 30  1  0  0  0  0
  2  3  1  0  0  0  0
  2 31  1  0  0  0  0
  2 32  1  0  0  0  0
  3  4  1  0  0  0  0
  4  5  2  0  0  0  0
  4  6  1  0  0  0  0
  6 10  2  0  0  0  0
  6  7  1  0  0  0  0
  7 23  1  0  0  0  0
  7  8  2  0  0  0  0
  8  9  1  0  0  0  0
  8 19  1  0  0  0  0
  9 10  1  0  0  0  0
 10 11  1  0  0  0  0
 11 12  1  0  0  0  0
 11 33  1  0  0  0  0
 12 13  2  0  0  0  0
 12 14  1  0  0  0  0
 14 15  2  0  0  0  0
 14 34  1  0  0  0  0
 15 16  1  0  0  0  0
 15 17  1  0  0  0  0
 16 35  1  0  0  0  0
 16 36  1  0  0  0  0
 16 37  1  0  0  0  0
 17 18  2  0  0  0  0
 17 53  1  0  0  0  0
 19 20  1  0  0  0  0
 19 38  1  0  0  0  0
 19 39  1  0  0  0  0
 20 21  1  0  0  0  0
 20 22  1  0  0  0  0
 20 24  1  0  0  0  0
 22 23  1  0  0  0  0
 22 40  1  0  0  0  0
 22 41  1  0  0  0  0
 23 42  1  0  0  0  0
 23 43  1  0  0  0  0
 24 25  1  0  0  0  0
 24 26  1  0  0  0  0
 24 27  1  0  0  0  0
 25 44  1  0  0  0  0
 25 45  1  0  0  0  0
 25 46  1  0  0  0  0
 26 47  1  0  0  0  0
 26 48  1  0  0  0  0
 26 49  1  0  0  0  0
 27 50  1  0  0  0  0
 27 51  1  0  0  0  0
 27 52  1  0  0  0  0
M  CHG  1  53  -1
M  END
$$$$
ZINC03852978
  -OEChem-08230709463D

 53 54  0     1  0  0  0  0  0999 V2000
   -4.9878   -0.2425   -2.9689 C   0  0  0  0  0  0  0  0  0  0  0  0
   -3.9588    0.4154   -2.0473 C   0  0  0  0  0  0  0  0  0  0  0  0
   -3.9904    1.8547   -2.2361 O   0  0  0  0  0  0  0  0  0  0  0  0
   -3.1372    2.5886   -1.4926 C   0  0  0  0  0  0  0  0  0  0  0  0
   -2.3873    2.0397   -0.7079 O   0  0  0  0  0  0  0  0  0  0  0  0
   -3.1137    4.0464   -1.6303 C   0  0  0  0  0  0  0  0  0  0  0  0
   -3.9659    4.8945   -0.8143 C   0  0  0  0  0  0  0  0  0  0  0  0
   -3.8412    6.2210   -1.0381 C   0  0  0  0  0  0  0  0  0  0  0  0
   -2.6259    6.3524   -2.3188 S   0  0  0  0  0  0  0  0  0  0  0  0
   -2.2798    4.6705   -2.5501 C   0  0  0  0  0  0  0  0  0  0  0  0
   -1.3896    4.0897   -3.4360 N   0  0  0  0  0  0  0  0  0  0  0  0
   -0.6577    4.8645   -4.2609 C   0  0  0  0  0  0  0  0  0  0  0  0
   -0.7796    6.0734   -4.2266 O   0  0  0  0  0  0  0  0  0  0  0  0
    0.2917    4.2452   -5.2056 C   0  0  0  0  0  0  0  0  0  0  0  0
    1.1271    5.0166   -5.9209 C   0  0  0  0  0  0  0  0  0  0  0  0
    2.0038    4.3981   -6.9792 C   0  0  0  0  0  0  0  0  0  0  0  0
    1.1863    6.4686   -5.6706 C   0  0  0  0  0  0  0  0  0  0  0  0
    1.3968    6.8833   -4.5486 O   0  0  0  0  0  0  0  0  0  0  0  0
   -4.5804    7.3264   -0.3492 C   0  0  0  0  0  0  0  0  0  0  0  0
   -5.2421    6.7559    0.9106 C   0  0  2  0  0  0  0  0  0  0  0  0
   -4.4769    6.5550    1.6603 H   0  0  0  0  0  0  0  0  0  0  0  0
   -5.9625    5.4534    0.5506 C   0  0  0  0  0  0  0  0  0  0  0  0
   -4.9380    4.3631    0.2318 C   0  0  0  0  0  0  0  0  0  0  0  0
   -6.2510    7.7638    1.4648 C   0  0  0  0  0  0  0  0  0  0  0  0
   -6.9134    7.1862    2.7171 C   0  0  0  0  0  0  0  0  0  0  0  0
   -5.5285    9.0639    1.8235 C   0  0  0  0  0  0  0  0  0  0  0  0
   -7.3199    8.0491    0.4079 C   0  0  0  0  0  0  0  0  0  0  0  0
   -4.7498   -0.0068   -4.0061 H   0  0  0  0  0  0  0  0  0  0  0  0
   -4.9641   -1.3230   -2.8272 H   0  0  0  0  0  0  0  0  0  0  0  0
   -5.9826    0.1335   -2.7299 H   0  0  0  0  0  0  0  0  0  0  0  0
   -2.9641    0.0393   -2.2863 H   0  0  0  0  0  0  0  0  0  0  0  0
   -4.1969    0.1796   -1.0101 H   0  0  0  0  0  0  0  0  0  0  0  0
   -1.2924    3.1250   -3.4633 H   0  0  0  0  0  0  0  0  0  0  0  0
    0.3149    3.1717   -5.3220 H   0  0  0  0  0  0  0  0  0  0  0  0
    1.4773    4.3996   -7.9336 H   0  0  0  0  0  0  0  0  0  0  0  0
    2.9243    4.9746   -7.0710 H   0  0  0  0  0  0  0  0  0  0  0  0
    2.2439    3.3726   -6.6983 H   0  0  0  0  0  0  0  0  0  0  0  0
   -3.8852    8.1221   -0.0815 H   0  0  0  0  0  0  0  0  0  0  0  0
   -5.3524    7.7198   -1.0106 H   0  0  0  0  0  0  0  0  0  0  0  0
   -6.5974    5.6193   -0.3197 H   0  0  0  0  0  0  0  0  0  0  0  0
   -6.5790    5.1362    1.3917 H   0  0  0  0  0  0  0  0  0  0  0  0
   -5.4499    3.4835   -0.1585 H   0  0  0  0  0  0  0  0  0  0  0  0
   -4.3919    4.0988    1.1373 H   0  0  0  0  0  0  0  0  0  0  0  0
   -6.1520    6.9829    3.4701 H   0  0  0  0  0  0  0  0  0  0  0  0
   -7.6322    7.9042    3.1120 H   0  0  0  0  0  0  0  0  0  0  0  0
   -7.4281    6.2599    2.4616 H   0  0  0  0  0  0  0  0  0  0  0  0
   -5.0566    9.4754    0.9313 H   0  0  0  0  0  0  0  0  0  0  0  0
   -6.2473    9.7819    2.2183 H   0  0  0  0  0  0  0  0  0  0  0  0
   -4.7671    8.8606    2.5764 H   0  0  0  0  0  0  0  0  0  0  0  0
   -7.8345    7.1229    0.1524 H   0  0  0  0  0  0  0  0  0  0  0  0
   -8.0386    8.7671    0.8027 H   0  0  0  0  0  0  0  0  0  0  0  0
   -6.8479    8.4606   -0.4843 H   0  0  0  0  0  0  0  0  0  0  0  0
    1.0068    7.3354   -6.6868 O   0  5  0  0  0  0  0  0  0  0  0  0
  1  2  1  0  0  0  0
  1 28  1  0  0  0  0
  1 29  1  0  0  0  0
  1 30  1  0  0  0  0
  2  3  1  0  0  0  0
  2 31  1  0  0  0  0
  2 32  1  0  0  0  0
  3  4  1  0  0  0  0
  4  5  2  0  0  0  0
  4  6  1  0  0  0  0
  6 10  2  0  0  0  0
  6  7  1  0  0  0  0
  7 23  1  0  0  0  0
  7  8  2  0  0  0  0
  8  9  1  0  0  0  0
  8 19  1  0  0  0  0
  9 10  1  0  0  0  0
 10 11  1  0  0  0  0
 11 12  1  0  0  0  0
 11 33  1  0  0  0  0
 12 13  2  0  0  0  0
 12 14  1  0  0  0  0
 14 15  2  0  0  0  0
 14 34  1  0  0  0  0
 15 16  1  0  0  0  0
 15 17  1  0  0  0  0
 16 35  1  0  0  0  0
 16 36  1  0  0  0  0
 16 37  1  0  0  0  0
 17 18  2  0  0  0  0
 17 53  1  0  0  0  0
 19 20  1  0  0  0  0
 19 38  1  0  0  0  0
 19 39  1  0  0  0  0
 20 21  1  0  0  0  0
 20 22  1  0  0  0  0
 20 24  1  0  0  0  0
 22 23  1  0  0  0  0
 22 40  1  0  0  0  0
 22 41  1  0  0  0  0
 23 42  1  0  0  0  0
 23 43  1  0  0  0  0
 24 25  1  0  0  0  0
 24 26  1  0  0  0  0
 24 27  1  0  0  0  0
 25 44  1  0  0  0  0
 25 45  1  0  0  0  0
 25 46  1  0  0  0  0
 26 47  1  0  0  0  0
 26 48  1  0  0  0  0
 26 49  1  0  0  0  0
 27 50  1  0  0  0  0
 27 51  1  0  0  0  0
 27 52  1  0  0  0  0
M  CHG  1  53  -1
M  END
$$$$
ZINC03852979
  -OEChem-08230709463D

 53 54  0     1  0  0  0  0  0999 V2000
    0.7857    4.4517   -0.7293 C   0  0  0  0  0  0  0  0  0  0  0  0
    0.7539    2.9710   -0.3452 C   0  0  0  0  0  0  0  0  0  0  0  0
   -0.6077    2.4757   -0.4396 O   0  0  0  0  0  0  0  0  0  0  0  0
   -0.8100    1.1781   -0.1318 C   0  0  0  0  0  0  0  0  0  0  0  0
    0.1270    0.4800    0.2063 O   0  0  0  0  0  0  0  0  0  0  0  0
   -2.1577    0.6098   -0.2046 C   0  0  0  0  0  0  0  0  0  0  0  0
   -3.0472    0.6291    0.9441 C   0  0  0  0  0  0  0  0  0  0  0  0
   -4.2610    0.0716    0.7416 C   0  0  0  0  0  0  0  0  0  0  0  0
   -4.2345   -0.4726   -0.9429 S   0  0  0  0  0  0  0  0  0  0  0  0
   -2.6362    0.0368   -1.3767 C   0  0  0  0  0  0  0  0  0  0  0  0
   -1.9921   -0.0961   -2.5940 N   0  0  0  0  0  0  0  0  0  0  0  0
   -2.6223   -0.6862   -3.6290 C   0  0  0  0  0  0  0  0  0  0  0  0
   -3.7566   -1.1015   -3.4929 O   0  0  0  0  0  0  0  0  0  0  0  0
   -1.9354   -0.8279   -4.9272 C   0  0  0  0  0  0  0  0  0  0  0  0
   -2.5152   -1.5204   -5.9218 C   0  0  0  0  0  0  0  0  0  0  0  0
   -3.7885   -2.2845   -5.6654 C   0  0  0  0  0  0  0  0  0  0  0  0
   -1.9056   -1.5328   -7.2644 C   0  0  0  0  0  0  0  0  0  0  0  0
   -0.8793   -0.9169   -7.4711 O   0  0  0  0  0  0  0  0  0  0  0  0
   -5.3751   -0.0520    1.7349 C   0  0  0  0  0  0  0  0  0  0  0  0
   -4.8052    0.2126    3.1360 C   0  0  1  0  0  0  0  0  0  0  0  0
   -4.1879   -0.6310    3.4448 H   0  0  0  0  0  0  0  0  0  0  0  0
   -3.9545    1.4852    3.0902 C   0  0  0  0  0  0  0  0  0  0  0  0
   -2.6735    1.2263    2.2952 C   0  0  0  0  0  0  0  0  0  0  0  0
   -5.9534    0.3988    4.1299 C   0  0  0  0  0  0  0  0  0  0  0  0
   -6.8116   -0.8674    4.1608 C   0  0  0  0  0  0  0  0  0  0  0  0
   -5.3829    0.6623    5.5249 C   0  0  0  0  0  0  0  0  0  0  0  0
   -6.8141    1.5878    3.6980 C   0  0  0  0  0  0  0  0  0  0  0  0
    0.4262    4.5697   -1.7515 H   0  0  0  0  0  0  0  0  0  0  0  0
    0.1458    5.0167   -0.0515 H   0  0  0  0  0  0  0  0  0  0  0  0
    1.8079    4.8235   -0.6585 H   0  0  0  0  0  0  0  0  0  0  0  0
    1.1135    2.8530    0.6770 H   0  0  0  0  0  0  0  0  0  0  0  0
    1.3939    2.4060   -1.0230 H   0  0  0  0  0  0  0  0  0  0  0  0
   -1.0870    0.2354   -2.7026 H   0  0  0  0  0  0  0  0  0  0  0  0
   -0.9666   -0.3750   -5.0778 H   0  0  0  0  0  0  0  0  0  0  0  0
   -4.6414   -1.6130   -5.7643 H   0  0  0  0  0  0  0  0  0  0  0  0
   -3.8781   -3.0947   -6.3890 H   0  0  0  0  0  0  0  0  0  0  0  0
   -3.7671   -2.6985   -4.6573 H   0  0  0  0  0  0  0  0  0  0  0  0
   -6.1508    0.6799    1.5096 H   0  0  0  0  0  0  0  0  0  0  0  0
   -5.7950   -1.0570    1.6924 H   0  0  0  0  0  0  0  0  0  0  0  0
   -4.5223    2.2834    2.6121 H   0  0  0  0  0  0  0  0  0  0  0  0
   -3.6948    1.7839    4.1058 H   0  0  0  0  0  0  0  0  0  0  0  0
   -2.0396    0.5274    2.8410 H   0  0  0  0  0  0  0  0  0  0  0  0
   -2.1407    2.1652    2.1450 H   0  0  0  0  0  0  0  0  0  0  0  0
   -6.1985   -1.7145    4.4685 H   0  0  0  0  0  0  0  0  0  0  0  0
   -7.6297   -0.7348    4.8688 H   0  0  0  0  0  0  0  0  0  0  0  0
   -7.2181   -1.0551    3.1670 H   0  0  0  0  0  0  0  0  0  0  0  0
   -4.7715    1.5645    5.5029 H   0  0  0  0  0  0  0  0  0  0  0  0
   -6.2009    0.7950    6.2329 H   0  0  0  0  0  0  0  0  0  0  0  0
   -4.7697   -0.1847    5.8326 H   0  0  0  0  0  0  0  0  0  0  0  0
   -7.2206    1.4001    2.7042 H   0  0  0  0  0  0  0  0  0  0  0  0
   -7.6321    1.7205    4.4060 H   0  0  0  0  0  0  0  0  0  0  0  0
   -6.2027    2.4899    3.6760 H   0  0  0  0  0  0  0  0  0  0  0  0
   -2.4871   -2.2274   -8.2621 O   0  5  0  0  0  0  0  0  0  0  0  0
  1  2  1  0  0  0  0
  1 28  1  0  0  0  0
  1 29  1  0  0  0  0
  1 30  1  0  0  0  0
  2  3  1  0  0  0  0
  2 31  1  0  0  0  0
  2 32  1  0  0  0  0
  3  4  1  0  0  0  0
  4  5  2  0  0  0  0
  4  6  1  0  0  0  0
  6 10  2  0  0  0  0
  6  7  1  0  0  0  0
  7 23  1  0  0  0  0
  7  8  2  0  0  0  0
  8  9  1  0  0  0  0
  8 19  1  0  0  0  0
  9 10  1  0  0  0  0
 10 11  1  0  0  0  0
 11 12  1  0  0  0  0
 11 33  1  0  0  0  0
 12 13  2  0  0  0  0
 12 14  1  0  0  0  0
 14 15  2  0  0  0  0
 14 34  1  0  0  0  0
 15 16  1  0  0  0  0
 15 17  1  0  0  0  0
 16 35  1  0  0  0  0
 16 36  1  0  0  0  0
 16 37  1  0  0  0  0
 17 18  2  0  0  0  0
 17 53  1  0  0  0  0
 19 20  1  0  0  0  0
 19 38  1  0  0  0  0
 19 39  1  0  0  0  0
 20 21  1  0  0  0  0
 20 22  1  0  0  0  0
 20 24  1  0  0  0  0
 22 23  1  0  0  0  0
 22 40  1  0  0  0  0
 22 41  1  0  0  0  0
 23 42  1  0  0  0  0
 23 43  1  0  0  0  0
 24 25  1  0  0  0  0
 24 26  1  0  0  0  0
 24 27  1  0  0  0  0
 25 44  1  0  0  0  0
 25 45  1  0  0  0  0
 25 46  1  0  0  0  0
 26 47  1  0  0  0  0
 26 48  1  0  0  0  0
 26 49  1  0  0  0  0
 27 50  1  0  0  0  0
 27 51  1  0  0  0  0
 27 52  1  0  0  0  0
M  CHG  1  53  -1
M  END
$$$$
ZINC03852980
  -OEChem-08230709463D

 53 54  0     1  0  0  0  0  0999 V2000
   -5.6746   -3.2926   -1.5368 C   0  0  0  0  0  0  0  0  0  0  0  0
   -5.4626   -2.6090   -0.1846 C   0  0  0  0  0  0  0  0  0  0  0  0
   -5.3112   -1.1787   -0.3838 O   0  0  0  0  0  0  0  0  0  0  0  0
   -5.1151   -0.4244    0.7171 C   0  0  0  0  0  0  0  0  0  0  0  0
   -5.0719   -0.9488    1.8138 O   0  0  0  0  0  0  0  0  0  0  0  0
   -4.9541    1.0258    0.5920 C   0  0  0  0  0  0  0  0  0  0  0  0
   -6.0990    1.9188    0.6459 C   0  0  0  0  0  0  0  0  0  0  0  0
   -5.8107    3.2324    0.5178 C   0  0  0  0  0  0  0  0  0  0  0  0
   -4.0508    3.2946    0.3357 S   0  0  0  0  0  0  0  0  0  0  0  0
   -3.7007    1.5997    0.4177 C   0  0  0  0  0  0  0  0  0  0  0  0
   -2.4709    0.9708    0.3355 N   0  0  0  0  0  0  0  0  0  0  0  0
   -1.3510    1.7006    0.1636 C   0  0  0  0  0  0  0  0  0  0  0  0
   -1.4212    2.9114    0.0807 O   0  0  0  0  0  0  0  0  0  0  0  0
   -0.0396    1.0300    0.0760 C   0  0  0  0  0  0  0  0  0  0  0  0
    1.0861    1.7609    0.0178 C   0  0  0  0  0  0  0  0  0  0  0  0
    2.4296    1.0783    0.0362 C   0  0  0  0  0  0  0  0  0  0  0  0
    1.0072    3.2311   -0.0641 C   0  0  0  0  0  0  0  0  0  0  0  0
    1.1091    3.7858   -1.1398 O   0  0  0  0  0  0  0  0  0  0  0  0
   -6.7787    4.3751    0.5336 C   0  0  0  0  0  0  0  0  0  0  0  0
   -8.1945    3.8122    0.3421 C   0  0  1  0  0  0  0  0  0  0  0  0
   -8.3189    3.4791   -0.6883 H   0  0  0  0  0  0  0  0  0  0  0  0
   -8.3877    2.6284    1.2942 C   0  0  0  0  0  0  0  0  0  0  0  0
   -7.5351    1.4451    0.8327 C   0  0  0  0  0  0  0  0  0  0  0  0
   -9.2252    4.8979    0.6580 C   0  0  0  0  0  0  0  0  0  0  0  0
   -9.0188    6.0864   -0.2831 C   0  0  0  0  0  0  0  0  0  0  0  0
  -10.6347    4.3344    0.4663 C   0  0  0  0  0  0  0  0  0  0  0  0
   -9.0528    5.3587    2.1068 C   0  0  0  0  0  0  0  0  0  0  0  0
   -5.7882   -4.3663   -1.3873 H   0  0  0  0  0  0  0  0  0  0  0  0
   -6.5729   -2.8944   -2.0085 H   0  0  0  0  0  0  0  0  0  0  0  0
   -4.8135   -3.1043   -2.1781 H   0  0  0  0  0  0  0  0  0  0  0  0
   -4.5643   -3.0072    0.2871 H   0  0  0  0  0  0  0  0  0  0  0  0
   -6.3236   -2.7973    0.4567 H   0  0  0  0  0  0  0  0  0  0  0  0
   -2.4149    0.0047    0.4017 H   0  0  0  0  0  0  0  0  0  0  0  0
    0.0151   -0.0484    0.0543 H   0  0  0  0  0  0  0  0  0  0  0  0
    2.7380    0.8558   -0.9853 H   0  0  0  0  0  0  0  0  0  0  0  0
    3.1642    1.7346    0.5028 H   0  0  0  0  0  0  0  0  0  0  0  0
    2.3581    0.1509    0.6044 H   0  0  0  0  0  0  0  0  0  0  0  0
   -6.7167    4.8957    1.4893 H   0  0  0  0  0  0  0  0  0  0  0  0
   -6.5448    5.0658   -0.2765 H   0  0  0  0  0  0  0  0  0  0  0  0
   -8.0874    2.9204    2.3005 H   0  0  0  0  0  0  0  0  0  0  0  0
   -9.4377    2.3360    1.3002 H   0  0  0  0  0  0  0  0  0  0  0  0
   -7.9202    1.0641   -0.1132 H   0  0  0  0  0  0  0  0  0  0  0  0
   -7.5651    0.6575    1.5856 H   0  0  0  0  0  0  0  0  0  0  0  0
   -9.1416    5.7582   -1.3153 H   0  0  0  0  0  0  0  0  0  0  0  0
   -9.7531    6.8599   -0.0581 H   0  0  0  0  0  0  0  0  0  0  0  0
   -8.0147    6.4879   -0.1466 H   0  0  0  0  0  0  0  0  0  0  0  0
  -10.7817    3.4876    1.1368 H   0  0  0  0  0  0  0  0  0  0  0  0
  -11.3690    5.1078    0.6914 H   0  0  0  0  0  0  0  0  0  0  0  0
  -10.7575    4.0061   -0.5658 H   0  0  0  0  0  0  0  0  0  0  0  0
   -8.0487    5.7601    2.2433 H   0  0  0  0  0  0  0  0  0  0  0  0
   -9.7871    6.1321    2.3318 H   0  0  0  0  0  0  0  0  0  0  0  0
   -9.1999    4.5119    2.7772 H   0  0  0  0  0  0  0  0  0  0  0  0
    0.8220    3.9593    1.0547 O   0  5  0  0  0  0  0  0  0  0  0  0
  1  2  1  0  0  0  0
  1 28  1  0  0  0  0
  1 29  1  0  0  0  0
  1 30  1  0  0  0  0
  2  3  1  0  0  0  0
  2 31  1  0  0  0  0
  2 32  1  0  0  0  0
  3  4  1  0  0  0  0
  4  5  2  0  0  0  0
  4  6  1  0  0  0  0
  6 10  2  0  0  0  0
  6  7  1  0  0  0  0
  7 23  1  0  0  0  0
  7  8  2  0  0  0  0
  8  9  1  0  0  0  0
  8 19  1  0  0  0  0
  9 10  1  0  0  0  0
 10 11  1  0  0  0  0
 11 12  1  0  0  0  0
 11 33  1  0  0  0  0
 12 13  2  0  0  0  0
 12 14  1  0  0  0  0
 14 15  2  0  0  0  0
 14 34  1  0  0  0  0
 15 16  1  0  0  0  0
 15 17  1  0  0  0  0
 16 35  1  0  0  0  0
 16 36  1  0  0  0  0
 16 37  1  0  0  0  0
 17 18  2  0  0  0  0
 17 53  1  0  0  0  0
 19 20  1  0  0  0  0
 19 38  1  0  0  0  0
 19 39  1  0  0  0  0
 20 21  1  0  0  0  0
 20 22  1  0  0  0  0
 20 24  1  0  0  0  0
 22 23  1  0  0  0  0
 22 40  1  0  0  0  0
 22 41  1  0  0  0  0
 23 42  1  0  0  0  0
 23 43  1  0  0  0  0
 24 25  1  0  0  0  0
 24 26  1  0  0  0  0
 24 27  1  0  0  0  0
 25 44  1  0  0  0  0
 25 45  1  0  0  0  0
 25 46  1  0  0  0  0
 26 47  1  0  0  0  0
 26 48  1  0  0  0  0
 26 49  1  0  0  0  0
 27 50  1  0  0  0  0
 27 51  1  0  0  0  0
 27 52  1  0  0  0  0
M  CHG  1  53  -1
M  END
$$$$
ZINC03856159
  -OEChem-08230709463D

 53 55  0     1  0  0  0  0  0999 V2000
   -0.5550    4.1043   -3.5857 C   0  0  0  0  0  0  0  0  0  0  0  0
   -0.0771    3.4097   -2.3367 C   0  0  0  0  0  0  0  0  0  0  0  0
    0.2318    4.1509   -1.2097 C   0  0  0  0  0  0  0  0  0  0  0  0
    0.6720    3.5211   -0.0594 C   0  0  0  0  0  0  0  0  0  0  0  0
    0.8051    2.1481   -0.0287 C   0  0  0  0  0  0  0  0  0  0  0  0
    0.4949    1.3947   -1.1617 C   0  0  0  0  0  0  0  0  0  0  0  0
    0.0571    2.0370   -2.3212 C   0  0  0  0  0  0  0  0  0  0  0  0
   -0.2677    1.2462   -3.5295 N   0  3  0  0  0  0  0  0  0  0  0  0
   -1.4001    0.8310   -3.6994 O   0  0  0  0  0  0  0  0  0  0  0  0
    0.5974    1.0107   -4.3540 O   0  5  0  0  0  0  0  0  0  0  0  0
    0.6351   -0.0769   -1.1359 C   0  0  0  0  0  0  0  0  0  0  0  0
    0.3641   -0.7306   -2.1242 O   0  0  0  0  0  0  0  0  0  0  0  0
    1.0633   -0.6936   -0.0166 N   0  0  0  0  0  0  0  0  0  0  0  0
    1.0974   -2.1568    0.0462 C   0  0  2  0  0  0  0  0  0  0  0  0
    0.3016   -2.5659   -0.5763 H   0  0  0  0  0  0  0  0  0  0  0  0
    0.8968   -2.6100    1.4937 C   0  0  0  0  0  0  0  0  0  0  0  0
   -0.4903   -2.2365    1.9493 C   0  0  0  0  0  0  0  0  0  0  0  0
   -1.2098   -1.5889    1.2262 O   0  0  0  0  0  0  0  0  0  0  0  0
    2.4305   -2.6501   -0.4544 C   0  0  0  0  0  0  0  0  0  0  0  0
    3.5873   -1.9694   -0.1223 C   0  0  0  0  0  0  0  0  0  0  0  0
    4.8111   -2.4228   -0.5752 C   0  0  0  0  0  0  0  0  0  0  0  0
    4.8777   -3.5556   -1.3733 C   0  0  0  0  0  0  0  0  0  0  0  0
    3.7151   -4.2336   -1.7097 C   0  0  0  0  0  0  0  0  0  0  0  0
    2.4943   -3.7794   -1.2496 C   0  0  0  0  0  0  0  0  0  0  0  0
    6.0800   -4.0007   -1.8243 O   0  0  0  0  0  0  0  0  0  0  0  0
    6.0636   -5.0966   -2.7412 C   0  0  0  0  0  0  0  0  0  0  0  0
    6.0522   -6.4318   -1.9686 C   0  0  0  0  0  0  0  0  0  0  0  0
    6.9451   -7.3699   -2.8197 C   0  0  0  0  0  0  0  0  0  0  0  0
    8.0696   -6.4229   -3.3073 C   0  0  0  0  0  0  0  0  0  0  0  0
    7.3455   -5.0910   -3.5924 C   0  0  0  0  0  0  0  0  0  0  0  0
    0.3013    4.3587   -4.2103 H   0  0  0  0  0  0  0  0  0  0  0  0
   -1.2228    3.4421   -4.1369 H   0  0  0  0  0  0  0  0  0  0  0  0
   -1.0894    5.0145   -3.3135 H   0  0  0  0  0  0  0  0  0  0  0  0
    0.1290    5.2258   -1.2284 H   0  0  0  0  0  0  0  0  0  0  0  0
    0.9117    4.1054    0.8167 H   0  0  0  0  0  0  0  0  0  0  0  0
    1.1482    1.6576    0.8702 H   0  0  0  0  0  0  0  0  0  0  0  0
    1.3488   -0.1686    0.7474 H   0  0  0  0  0  0  0  0  0  0  0  0
    1.0210   -3.6911    1.5565 H   0  0  0  0  0  0  0  0  0  0  0  0
    1.6328   -2.1220    2.1326 H   0  0  0  0  0  0  0  0  0  0  0  0
    3.5345   -1.0850    0.4953 H   0  0  0  0  0  0  0  0  0  0  0  0
    5.7148   -1.8932   -0.3120 H   0  0  0  0  0  0  0  0  0  0  0  0
    3.7643   -5.1155   -2.3312 H   0  0  0  0  0  0  0  0  0  0  0  0
    1.5889   -4.3070   -1.5110 H   0  0  0  0  0  0  0  0  0  0  0  0
    5.1871   -5.0307   -3.3858 H   0  0  0  0  0  0  0  0  0  0  0  0
    6.4771   -6.3004   -0.9735 H   0  0  0  0  0  0  0  0  0  0  0  0
    5.0380   -6.8257   -1.9025 H   0  0  0  0  0  0  0  0  0  0  0  0
    6.3861   -7.7728   -3.6642 H   0  0  0  0  0  0  0  0  0  0  0  0
    7.3554   -8.1752   -2.2104 H   0  0  0  0  0  0  0  0  0  0  0  0
    8.5270   -6.8109   -4.2175 H   0  0  0  0  0  0  0  0  0  0  0  0
    8.8207   -6.2898   -2.5287 H   0  0  0  0  0  0  0  0  0  0  0  0
    7.0911   -5.0232   -4.6501 H   0  0  0  0  0  0  0  0  0  0  0  0
    7.9797   -4.2518   -3.3067 H   0  0  0  0  0  0  0  0  0  0  0  0
   -0.9265   -2.6234    3.1583 O   0  5  0  0  0  0  0  0  0  0  0  0
  1  2  1  0  0  0  0
  1 31  1  0  0  0  0
  1 32  1  0  0  0  0
  1 33  1  0  0  0  0
  2  7  2  0  0  0  0
  2  3  1  0  0  0  0
  3  4  2  0  0  0  0
  3 34  1  0  0  0  0
  4  5  1  0  0  0  0
  4 35  1  0  0  0  0
  5  6  2  0  0  0  0
  5 36  1  0  0  0  0
  6  7  1  0  0  0  0
  6 11  1  0  0  0  0
  7  8  1  0  0  0  0
  8  9  2  0  0  0  0
  8 10  1  0  0  0  0
 11 12  2  0  0  0  0
 11 13  1  0  0  0  0
 13 14  1  0  0  0  0
 13 37  1  0  0  0  0
 14 15  1  0  0  0  0
 14 16  1  0  0  0  0
 14 19  1  0  0  0  0
 16 17  1  0  0  0  0
 16 38  1  0  0  0  0
 16 39  1  0  0  0  0
 17 18  2  0  0  0  0
 17 53  1  0  0  0  0
 19 24  2  0  0  0  0
 19 20  1  0  0  0  0
 20 21  2  0  0  0  0
 20 40  1  0  0  0  0
 21 22  1  0  0  0  0
 21 41  1  0  0  0  0
 22 23  2  0  0  0  0
 22 25  1  0  0  0  0
 23 24  1  0  0  0  0
 23 42  1  0  0  0  0
 24 43  1  0  0  0  0
 25 26  1  0  0  0  0
 26 30  1  0  0  0  0
 26 27  1  0  0  0  0
 26 44  1  0  0  0  0
 27 28  1  0  0  0  0
 27 45  1  0  0  0  0
 27 46  1  0  0  0  0
 28 29  1  0  0  0  0
 28 47  1  0  0  0  0
 28 48  1  0  0  0  0
 29 30  1  0  0  0  0
 29 49  1  0  0  0  0
 29 50  1  0  0  0  0
 30 51  1  0  0  0  0
 30 52  1  0  0  0  0
M  CHG  3   8   1  10  -1  53  -1
M  END
$$$$
ZINC03856658
  -OEChem-08230709463D

 53 55  0     1  0  0  0  0  0999 V2000
    1.7495   -1.4490   -2.8798 C   0  0  0  0  0  0  0  0  0  0  0  0
    0.5623   -1.9589   -2.0604 C   0  0  0  0  0  0  0  0  0  0  0  0
    0.1284   -3.3278   -2.5885 C   0  0  0  0  0  0  0  0  0  0  0  0
    0.9729   -2.0856   -0.5919 C   0  0  0  0  0  0  0  0  0  0  0  0
    1.2665   -0.6960   -0.0228 C   0  0  2  0  0  0  0  0  0  0  0  0
    2.0178   -0.2023   -0.6392 H   0  0  0  0  0  0  0  0  0  0  0  0
    1.7820   -0.8293    1.3870 C   0  0  0  0  0  0  0  0  0  0  0  0
    1.1836   -0.3121    2.3005 O   0  0  0  0  0  0  0  0  0  0  0  0
    0.0369    0.1003   -0.0200 N   0  0  0  0  0  0  0  0  0  0  0  0
    0.1073    1.4835   -0.0564 C   0  0  0  0  0  0  0  0  0  0  0  0
   -0.8718    2.3692   -0.0660 N   0  0  0  0  0  0  0  0  0  0  0  0
   -0.6175    3.6756   -0.0995 C   0  0  0  0  0  0  0  0  0  0  0  0
    0.6791    4.1035   -0.1349 C   0  0  0  0  0  0  0  0  0  0  0  0
    1.5472    2.5407   -0.1108 S   0  0  0  0  0  0  0  0  0  0  0  0
   -1.7305    4.6557   -0.1044 C   0  0  0  0  0  0  0  0  0  0  0  0
   -1.4589    6.0224   -0.1396 C   0  0  0  0  0  0  0  0  0  0  0  0
   -2.4987    6.9298   -0.1493 C   0  0  0  0  0  0  0  0  0  0  0  0
   -3.8083    6.4855   -0.1127 C   0  0  0  0  0  0  0  0  0  0  0  0
   -4.0837    5.1304   -0.0725 C   0  0  0  0  0  0  0  0  0  0  0  0
   -3.0520    4.2138   -0.0681 C   0  0  0  0  0  0  0  0  0  0  0  0
   -4.9392    7.4814   -0.1172 C   0  0  0  0  0  0  0  0  0  0  0  0
   -4.8689    8.3272   -1.3903 C   0  0  0  0  0  0  0  0  0  0  0  0
   -6.0172    9.3383   -1.3948 C   0  0  0  0  0  0  0  0  0  0  0  0
   -5.8999   10.2487   -0.1707 C   0  0  0  0  0  0  0  0  0  0  0  0
   -5.9702    9.4029    1.1024 C   0  0  0  0  0  0  0  0  0  0  0  0
   -4.8220    8.3918    1.1069 C   0  0  0  0  0  0  0  0  0  0  0  0
    2.5787   -2.1512   -2.7937 H   0  0  0  0  0  0  0  0  0  0  0  0
    1.4570   -1.3588   -3.9259 H   0  0  0  0  0  0  0  0  0  0  0  0
    2.0586   -0.4739   -2.5035 H   0  0  0  0  0  0  0  0  0  0  0  0
   -0.2669   -1.2567   -2.1465 H   0  0  0  0  0  0  0  0  0  0  0  0
    0.9556   -4.0316   -2.4964 H   0  0  0  0  0  0  0  0  0  0  0  0
   -0.7215   -3.6881   -2.0088 H   0  0  0  0  0  0  0  0  0  0  0  0
   -0.1580   -3.2388   -3.6364 H   0  0  0  0  0  0  0  0  0  0  0  0
    1.8665   -2.7052   -0.5167 H   0  0  0  0  0  0  0  0  0  0  0  0
    0.1628   -2.5461   -0.0265 H   0  0  0  0  0  0  0  0  0  0  0  0
   -0.8266   -0.3408    0.0074 H   0  0  0  0  0  0  0  0  0  0  0  0
    1.0718    5.1090   -0.1686 H   0  0  0  0  0  0  0  0  0  0  0  0
   -0.4369    6.3706   -0.1633 H   0  0  0  0  0  0  0  0  0  0  0  0
   -2.2896    7.9889   -0.1810 H   0  0  0  0  0  0  0  0  0  0  0  0
   -5.1079    4.7892   -0.0440 H   0  0  0  0  0  0  0  0  0  0  0  0
   -3.2682    3.1561   -0.0371 H   0  0  0  0  0  0  0  0  0  0  0  0
   -5.8908    6.9508   -0.0856 H   0  0  0  0  0  0  0  0  0  0  0  0
   -3.9174    8.8578   -1.4219 H   0  0  0  0  0  0  0  0  0  0  0  0
   -4.9525    7.6786   -2.2624 H   0  0  0  0  0  0  0  0  0  0  0  0
   -6.9687    8.8077   -1.3632 H   0  0  0  0  0  0  0  0  0  0  0  0
   -5.9671    9.9408   -2.3018 H   0  0  0  0  0  0  0  0  0  0  0  0
   -6.7179   10.9690   -0.1740 H   0  0  0  0  0  0  0  0  0  0  0  0
   -4.9483   10.7793   -0.2023 H   0  0  0  0  0  0  0  0  0  0  0  0
   -6.9218    8.8723    1.1340 H   0  0  0  0  0  0  0  0  0  0  0  0
   -5.8867   10.0515    1.9744 H   0  0  0  0  0  0  0  0  0  0  0  0
   -4.8720    7.7893    2.0139 H   0  0  0  0  0  0  0  0  0  0  0  0
   -3.8704    8.9224    1.0753 H   0  0  0  0  0  0  0  0  0  0  0  0
    2.9058   -1.5225    1.6280 O   0  5  0  0  0  0  0  0  0  0  0  0
  1  2  1  0  0  0  0
  1 27  1  0  0  0  0
  1 28  1  0  0  0  0
  1 29  1  0  0  0  0
  2  3  1  0  0  0  0
  2  4  1  0  0  0  0
  2 30  1  0  0  0  0
  3 31  1  0  0  0  0
  3 32  1  0  0  0  0
  3 33  1  0  0  0  0
  4  5  1  0  0  0  0
  4 34  1  0  0  0  0
  4 35  1  0  0  0  0
  5  6  1  0  0  0  0
  5  7  1  0  0  0  0
  5  9  1  0  0  0  0
  7  8  2  0  0  0  0
  7 53  1  0  0  0  0
  9 10  1  0  0  0  0
  9 36  1  0  0  0  0
 10 14  1  0  0  0  0
 10 11  2  0  0  0  0
 11 12  1  0  0  0  0
 12 13  2  0  0  0  0
 12 15  1  0  0  0  0
 13 14  1  0  0  0  0
 13 37  1  0  0  0  0
 15 20  2  0  0  0  0
 15 16  1  0  0  0  0
 16 17  2  0  0  0  0
 16 38  1  0  0  0  0
 17 18  1  0  0  0  0
 17 39  1  0  0  0  0
 18 19  2  0  0  0  0
 18 21  1  0  0  0  0
 19 20  1  0  0  0  0
 19 40  1  0  0  0  0
 20 41  1  0  0  0  0
 21 26  1  0  0  0  0
 21 22  1  0  0  0  0
 21 42  1  0  0  0  0
 22 23  1  0  0  0  0
 22 43  1  0  0  0  0
 22 44  1  0  0  0  0
 23 24  1  0  0  0  0
 23 45  1  0  0  0  0
 23 46  1  0  0  0  0
 24 25  1  0  0  0  0
 24 47  1  0  0  0  0
 24 48  1  0  0  0  0
 25 26  1  0  0  0  0
 25 49  1  0  0  0  0
 25 50  1  0  0  0  0
 26 51  1  0  0  0  0
 26 52  1  0  0  0  0
M  CHG  1  53  -1
M  END
$$$$
ZINC03856725
  -OEChem-08230709463D

 53 54  0     1  0  0  0  0  0999 V2000
   -4.2367    2.2860   10.8055 C   0  0  0  0  0  0  0  0  0  0  0  0
   -4.8737    2.0898    9.4283 C   0  0  0  0  0  0  0  0  0  0  0  0
   -5.8140    0.8835    9.4685 C   0  0  0  0  0  0  0  0  0  0  0  0
   -5.6669    3.3423    9.0501 C   0  0  0  0  0  0  0  0  0  0  0  0
   -6.1874    3.2032    7.6182 C   0  0  1  0  0  0  0  0  0  0  0  0
   -6.7798    2.2921    7.5338 H   0  0  0  0  0  0  0  0  0  0  0  0
   -7.0462    4.3940    7.2780 C   0  0  0  0  0  0  0  0  0  0  0  0
   -6.7433    5.1136    6.3558 O   0  0  0  0  0  0  0  0  0  0  0  0
   -5.0550    3.1371    6.6911 N   0  0  0  0  0  0  0  0  0  0  0  0
   -5.2010    2.5134    5.4626 C   0  0  0  0  0  0  0  0  0  0  0  0
   -4.3136    2.3500    4.4985 N   0  0  0  0  0  0  0  0  0  0  0  0
   -4.6314    1.7182    3.3708 C   0  0  0  0  0  0  0  0  0  0  0  0
   -5.8992    1.2366    3.2088 C   0  0  0  0  0  0  0  0  0  0  0  0
   -6.6402    1.7176    4.7631 S   0  0  0  0  0  0  0  0  0  0  0  0
   -3.6212    1.5443    2.2991 C   0  0  0  0  0  0  0  0  0  0  0  0
   -3.9236    0.7887    1.1684 C   0  0  0  0  0  0  0  0  0  0  0  0
   -2.9784    0.6263    0.1757 C   0  0  0  0  0  0  0  0  0  0  0  0
   -1.7341    1.2198    0.2946 C   0  0  0  0  0  0  0  0  0  0  0  0
   -1.4256    1.9756    1.4102 C   0  0  0  0  0  0  0  0  0  0  0  0
   -2.3630    2.1428    2.4162 C   0  0  0  0  0  0  0  0  0  0  0  0
   -2.0610    2.8862    3.5129 O   0  0  0  0  0  0  0  0  0  0  0  0
   -0.7566    3.4675    3.5635 C   0  0  0  0  0  0  0  0  0  0  0  0
   -3.3048   -0.1952   -1.0448 C   0  0  0  0  0  0  0  0  0  0  0  0
   -2.0989   -0.2114   -1.9862 C   0  0  0  0  0  0  0  0  0  0  0  0
   -4.5066    0.4184   -1.7660 C   0  0  0  0  0  0  0  0  0  0  0  0
   -3.6405   -1.6266   -0.6213 C   0  0  0  0  0  0  0  0  0  0  0  0
   -5.0092    2.5450   11.5296 H   0  0  0  0  0  0  0  0  0  0  0  0
   -3.7450    1.3632   11.1132 H   0  0  0  0  0  0  0  0  0  0  0  0
   -3.5021    3.0897   10.7549 H   0  0  0  0  0  0  0  0  0  0  0  0
   -4.0926    1.9171    8.6880 H   0  0  0  0  0  0  0  0  0  0  0  0
   -6.2678    0.7437    8.4874 H   0  0  0  0  0  0  0  0  0  0  0  0
   -5.2489   -0.0088    9.7380 H   0  0  0  0  0  0  0  0  0  0  0  0
   -6.5951    1.0562   10.2089 H   0  0  0  0  0  0  0  0  0  0  0  0
   -5.0195    4.2166    9.1181 H   0  0  0  0  0  0  0  0  0  0  0  0
   -6.5084    3.4594    9.7329 H   0  0  0  0  0  0  0  0  0  0  0  0
   -4.2030    3.5299    6.9374 H   0  0  0  0  0  0  0  0  0  0  0  0
   -6.3340    0.7093    2.3725 H   0  0  0  0  0  0  0  0  0  0  0  0
   -4.8953    0.3277    1.0703 H   0  0  0  0  0  0  0  0  0  0  0  0
   -1.0008    1.0924   -0.4879 H   0  0  0  0  0  0  0  0  0  0  0  0
   -0.4527    2.4364    1.4974 H   0  0  0  0  0  0  0  0  0  0  0  0
   -0.6466    4.0333    4.4886 H   0  0  0  0  0  0  0  0  0  0  0  0
   -0.0055    2.6783    3.5288 H   0  0  0  0  0  0  0  0  0  0  0  0
   -0.6227    4.1343    2.7117 H   0  0  0  0  0  0  0  0  0  0  0  0
   -1.8597    0.8083   -2.2879 H   0  0  0  0  0  0  0  0  0  0  0  0
   -2.3350   -0.8056   -2.8690 H   0  0  0  0  0  0  0  0  0  0  0  0
   -1.2427   -0.6485   -1.4724 H   0  0  0  0  0  0  0  0  0  0  0  0
   -4.7428   -0.1758   -2.6488 H   0  0  0  0  0  0  0  0  0  0  0  0
   -5.3658    0.4299   -1.0953 H   0  0  0  0  0  0  0  0  0  0  0  0
   -4.2675    1.4381   -2.0677 H   0  0  0  0  0  0  0  0  0  0  0  0
   -2.7843   -2.0637   -0.1075 H   0  0  0  0  0  0  0  0  0  0  0  0
   -4.4997   -1.6151    0.0494 H   0  0  0  0  0  0  0  0  0  0  0  0
   -3.8766   -2.2208   -1.5041 H   0  0  0  0  0  0  0  0  0  0  0  0
   -8.1475    4.6553    7.9995 O   0  5  0  0  0  0  0  0  0  0  0  0
  1  2  1  0  0  0  0
  1 27  1  0  0  0  0
  1 28  1  0  0  0  0
  1 29  1  0  0  0  0
  2  3  1  0  0  0  0
  2  4  1  0  0  0  0
  2 30  1  0  0  0  0
  3 31  1  0  0  0  0
  3 32  1  0  0  0  0
  3 33  1  0  0  0  0
  4  5  1  0  0  0  0
  4 34  1  0  0  0  0
  4 35  1  0  0  0  0
  5  6  1  0  0  0  0
  5  7  1  0  0  0  0
  5  9  1  0  0  0  0
  7  8  2  0  0  0  0
  7 53  1  0  0  0  0
  9 10  1  0  0  0  0
  9 36  1  0  0  0  0
 10 14  1  0  0  0  0
 10 11  2  0  0  0  0
 11 12  1  0  0  0  0
 12 13  2  0  0  0  0
 12 15  1  0  0  0  0
 13 14  1  0  0  0  0
 13 37  1  0  0  0  0
 15 20  2  0  0  0  0
 15 16  1  0  0  0  0
 16 17  2  0  0  0  0
 16 38  1  0  0  0  0
 17 18  1  0  0  0  0
 17 23  1  0  0  0  0
 18 19  2  0  0  0  0
 18 39  1  0  0  0  0
 19 20  1  0  0  0  0
 19 40  1  0  0  0  0
 20 21  1  0  0  0  0
 21 22  1  0  0  0  0
 22 41  1  0  0  0  0
 22 42  1  0  0  0  0
 22 43  1  0  0  0  0
 23 24  1  0  0  0  0
 23 25  1  0  0  0  0
 23 26  1  0  0  0  0
 24 44  1  0  0  0  0
 24 45  1  0  0  0  0
 24 46  1  0  0  0  0
 25 47  1  0  0  0  0
 25 48  1  0  0  0  0
 25 49  1  0  0  0  0
 26 50  1  0  0  0  0
 26 51  1  0  0  0  0
 26 52  1  0  0  0  0
M  CHG  1  53  -1
M  END
$$$$
ZINC03856726
  -OEChem-08230709463D

 53 54  0     1  0  0  0  0  0999 V2000
    3.5794   -3.3669    2.7845 C   0  0  0  0  0  0  0  0  0  0  0  0
    4.6651   -2.5499    2.0811 C   0  0  0  0  0  0  0  0  0  0  0  0
    6.0395   -2.9678    2.6077 C   0  0  0  0  0  0  0  0  0  0  0  0
    4.5979   -2.8034    0.5737 C   0  0  0  0  0  0  0  0  0  0  0  0
    3.2805   -2.2543    0.0224 C   0  0  2  0  0  0  0  0  0  0  0  0
    2.4462   -2.6988    0.5651 H   0  0  0  0  0  0  0  0  0  0  0  0
    3.1670   -2.5961   -1.4409 C   0  0  0  0  0  0  0  0  0  0  0  0
    3.0710   -1.7145   -2.2615 O   0  0  0  0  0  0  0  0  0  0  0  0
    3.2507   -0.7990    0.1878 N   0  0  0  0  0  0  0  0  0  0  0  0
    2.0370   -0.1351    0.2631 C   0  0  0  0  0  0  0  0  0  0  0  0
    1.7989    1.1555    0.4097 N   0  0  0  0  0  0  0  0  0  0  0  0
    0.5540    1.6238    0.4621 C   0  0  0  0  0  0  0  0  0  0  0  0
   -0.4929    0.7523    0.3623 C   0  0  0  0  0  0  0  0  0  0  0  0
    0.3793   -0.7985    0.1866 S   0  0  0  0  0  0  0  0  0  0  0  0
    0.3064    3.0766    0.6277 C   0  0  0  0  0  0  0  0  0  0  0  0
   -0.9928    3.5760    0.5696 C   0  0  0  0  0  0  0  0  0  0  0  0
   -1.2181    4.9290    0.7242 C   0  0  0  0  0  0  0  0  0  0  0  0
   -0.1577    5.7919    0.9373 C   0  0  0  0  0  0  0  0  0  0  0  0
    1.1354    5.3067    0.9967 C   0  0  0  0  0  0  0  0  0  0  0  0
    1.3753    3.9505    0.8485 C   0  0  0  0  0  0  0  0  0  0  0  0
    2.6454    3.4717    0.9127 O   0  0  0  0  0  0  0  0  0  0  0  0
    3.6867    4.4233    1.1409 C   0  0  0  0  0  0  0  0  0  0  0  0
   -2.6239    5.4682    0.6611 C   0  0  0  0  0  0  0  0  0  0  0  0
   -3.4674    4.8232    1.7627 C   0  0  0  0  0  0  0  0  0  0  0  0
   -2.5979    6.9849    0.8608 C   0  0  0  0  0  0  0  0  0  0  0  0
   -3.2337    5.1440   -0.7041 C   0  0  0  0  0  0  0  0  0  0  0  0
    3.7372   -4.4272    2.5869 H   0  0  0  0  0  0  0  0  0  0  0  0
    3.6273   -3.1864    3.8583 H   0  0  0  0  0  0  0  0  0  0  0  0
    2.6003   -3.0692    2.4093 H   0  0  0  0  0  0  0  0  0  0  0  0
    4.5073   -1.4897    2.2786 H   0  0  0  0  0  0  0  0  0  0  0  0
    6.1618   -4.0445    2.4898 H   0  0  0  0  0  0  0  0  0  0  0  0
    6.8167   -2.4501    2.0457 H   0  0  0  0  0  0  0  0  0  0  0  0
    6.1190   -2.7066    3.6630 H   0  0  0  0  0  0  0  0  0  0  0  0
    4.6532   -3.8751    0.3826 H   0  0  0  0  0  0  0  0  0  0  0  0
    5.4333   -2.3034    0.0836 H   0  0  0  0  0  0  0  0  0  0  0  0
    4.0807   -0.3002    0.2445 H   0  0  0  0  0  0  0  0  0  0  0  0
   -1.5550    0.9465    0.3837 H   0  0  0  0  0  0  0  0  0  0  0  0
   -1.8229    2.9053    0.4034 H   0  0  0  0  0  0  0  0  0  0  0  0
   -0.3411    6.8494    1.0582 H   0  0  0  0  0  0  0  0  0  0  0  0
    1.9590    5.9851    1.1636 H   0  0  0  0  0  0  0  0  0  0  0  0
    3.6909    5.1575    0.3353 H   0  0  0  0  0  0  0  0  0  0  0  0
    3.5155    4.9282    2.0917 H   0  0  0  0  0  0  0  0  0  0  0  0
    4.6479    3.9102    1.1699 H   0  0  0  0  0  0  0  0  0  0  0  0
   -3.0329    5.0542    2.7353 H   0  0  0  0  0  0  0  0  0  0  0  0
   -4.4842    5.2132    1.7171 H   0  0  0  0  0  0  0  0  0  0  0  0
   -3.4859    3.7427    1.6204 H   0  0  0  0  0  0  0  0  0  0  0  0
   -1.9969    7.4444    0.0761 H   0  0  0  0  0  0  0  0  0  0  0  0
   -3.6147    7.3749    0.8153 H   0  0  0  0  0  0  0  0  0  0  0  0
   -2.1634    7.2159    1.8335 H   0  0  0  0  0  0  0  0  0  0  0  0
   -3.2523    4.0635   -0.8464 H   0  0  0  0  0  0  0  0  0  0  0  0
   -4.2506    5.5340   -0.7497 H   0  0  0  0  0  0  0  0  0  0  0  0
   -2.6328    5.6035   -1.4888 H   0  0  0  0  0  0  0  0  0  0  0  0
    3.1724   -3.8799   -1.8326 O   0  5  0  0  0  0  0  0  0  0  0  0
  1  2  1  0  0  0  0
  1 27  1  0  0  0  0
  1 28  1  0  0  0  0
  1 29  1  0  0  0  0
  2  3  1  0  0  0  0
  2  4  1  0  0  0  0
  2 30  1  0  0  0  0
  3 31  1  0  0  0  0
  3 32  1  0  0  0  0
  3 33  1  0  0  0  0
  4  5  1  0  0  0  0
  4 34  1  0  0  0  0
  4 35  1  0  0  0  0
  5  6  1  0  0  0  0
  5  7  1  0  0  0  0
  5  9  1  0  0  0  0
  7  8  2  0  0  0  0
  7 53  1  0  0  0  0
  9 10  1  0  0  0  0
  9 36  1  0  0  0  0
 10 14  1  0  0  0  0
 10 11  2  0  0  0  0
 11 12  1  0  0  0  0
 12 13  2  0  0  0  0
 12 15  1  0  0  0  0
 13 14  1  0  0  0  0
 13 37  1  0  0  0  0
 15 20  2  0  0  0  0
 15 16  1  0  0  0  0
 16 17  2  0  0  0  0
 16 38  1  0  0  0  0
 17 18  1  0  0  0  0
 17 23  1  0  0  0  0
 18 19  2  0  0  0  0
 18 39  1  0  0  0  0
 19 20  1  0  0  0  0
 19 40  1  0  0  0  0
 20 21  1  0  0  0  0
 21 22  1  0  0  0  0
 22 41  1  0  0  0  0
 22 42  1  0  0  0  0
 22 43  1  0  0  0  0
 23 24  1  0  0  0  0
 23 25  1  0  0  0  0
 23 26  1  0  0  0  0
 24 44  1  0  0  0  0
 24 45  1  0  0  0  0
 24 46  1  0  0  0  0
 25 47  1  0  0  0  0
 25 48  1  0  0  0  0
 25 49  1  0  0  0  0
 26 50  1  0  0  0  0
 26 51  1  0  0  0  0
 26 52  1  0  0  0  0
M  CHG  1  53  -1
M  END
$$$$
ZINC03856727
  -OEChem-08230709463D

 53 54  0     1  0  0  0  0  0999 V2000
   -3.1780    2.9953    9.9423 C   0  0  0  0  0  0  0  0  0  0  0  0
   -4.2770    2.4953    9.0027 C   0  0  0  0  0  0  0  0  0  0  0  0
   -5.1882    3.6623    8.6171 C   0  0  1  0  0  0  0  0  0  0  0  0
   -5.5823    4.1292    9.5198 H   0  0  0  0  0  0  0  0  0  0  0  0
   -4.3873    4.6924    7.8181 C   0  0  0  0  0  0  0  0  0  0  0  0
   -6.3473    3.1439    7.7635 C   0  0  1  0  0  0  0  0  0  0  0  0
   -6.9207    2.4135    8.3343 H   0  0  0  0  0  0  0  0  0  0  0  0
   -7.2413    4.2943    7.3784 C   0  0  0  0  0  0  0  0  0  0  0  0
   -7.1007    4.8366    6.3078 O   0  0  0  0  0  0  0  0  0  0  0  0
   -5.8174    2.5108    6.5532 N   0  0  0  0  0  0  0  0  0  0  0  0
   -6.5588    1.5417    5.8970 C   0  0  0  0  0  0  0  0  0  0  0  0
   -6.2624    0.8603    4.8055 N   0  0  0  0  0  0  0  0  0  0  0  0
   -7.1041   -0.0434    4.3087 C   0  0  0  0  0  0  0  0  0  0  0  0
   -8.2961   -0.2638    4.9380 C   0  0  0  0  0  0  0  0  0  0  0  0
   -8.1698    0.8833    6.3035 S   0  0  0  0  0  0  0  0  0  0  0  0
   -6.7538   -0.7985    3.0814 C   0  0  0  0  0  0  0  0  0  0  0  0
   -7.6287   -1.7582    2.5767 C   0  0  0  0  0  0  0  0  0  0  0  0
   -7.2959   -2.4617    1.4367 C   0  0  0  0  0  0  0  0  0  0  0  0
   -6.1004   -2.2104    0.7870 C   0  0  0  0  0  0  0  0  0  0  0  0
   -5.2276   -1.2566    1.2765 C   0  0  0  0  0  0  0  0  0  0  0  0
   -5.5468   -0.5466    2.4223 C   0  0  0  0  0  0  0  0  0  0  0  0
   -4.6896    0.3912    2.9042 O   0  0  0  0  0  0  0  0  0  0  0  0
   -3.4753    0.5941    2.1788 C   0  0  0  0  0  0  0  0  0  0  0  0
   -8.2408   -3.5029    0.8943 C   0  0  0  0  0  0  0  0  0  0  0  0
   -7.6428   -4.1257   -0.3688 C   0  0  0  0  0  0  0  0  0  0  0  0
   -9.5810   -2.8478    0.5546 C   0  0  0  0  0  0  0  0  0  0  0  0
   -8.4578   -4.5923    1.9465 C   0  0  0  0  0  0  0  0  0  0  0  0
   -2.5288    2.1639   10.2170 H   0  0  0  0  0  0  0  0  0  0  0  0
   -2.5911    3.7635    9.4388 H   0  0  0  0  0  0  0  0  0  0  0  0
   -3.6310    3.4147   10.8407 H   0  0  0  0  0  0  0  0  0  0  0  0
   -4.8639    1.7271    9.5062 H   0  0  0  0  0  0  0  0  0  0  0  0
   -3.8240    2.0759    8.1044 H   0  0  0  0  0  0  0  0  0  0  0  0
   -3.9933    4.2255    6.9155 H   0  0  0  0  0  0  0  0  0  0  0  0
   -5.0365    5.5238    7.5435 H   0  0  0  0  0  0  0  0  0  0  0  0
   -3.5616    5.0617    8.4263 H   0  0  0  0  0  0  0  0  0  0  0  0
   -4.9475    2.7702    6.2113 H   0  0  0  0  0  0  0  0  0  0  0  0
   -9.0944   -0.9446    4.6820 H   0  0  0  0  0  0  0  0  0  0  0  0
   -8.5645   -1.9540    3.0790 H   0  0  0  0  0  0  0  0  0  0  0  0
   -5.8481   -2.7616   -0.1068 H   0  0  0  0  0  0  0  0  0  0  0  0
   -4.2961   -1.0646    0.7648 H   0  0  0  0  0  0  0  0  0  0  0  0
   -3.7081    0.9059    1.1606 H   0  0  0  0  0  0  0  0  0  0  0  0
   -2.8839    1.3673    2.6692 H   0  0  0  0  0  0  0  0  0  0  0  0
   -2.9076   -0.3360    2.1531 H   0  0  0  0  0  0  0  0  0  0  0  0
   -7.4882   -3.3496   -1.1184 H   0  0  0  0  0  0  0  0  0  0  0  0
   -8.3263   -4.8788   -0.7611 H   0  0  0  0  0  0  0  0  0  0  0  0
   -6.6880   -4.5924   -0.1267 H   0  0  0  0  0  0  0  0  0  0  0  0
  -10.2645   -3.6008    0.1623 H   0  0  0  0  0  0  0  0  0  0  0  0
  -10.0070   -2.4040    1.4545 H   0  0  0  0  0  0  0  0  0  0  0  0
   -9.4264   -2.0717   -0.1950 H   0  0  0  0  0  0  0  0  0  0  0  0
   -7.5030   -5.0590    2.1886 H   0  0  0  0  0  0  0  0  0  0  0  0
   -8.8838   -4.1486    2.8464 H   0  0  0  0  0  0  0  0  0  0  0  0
   -9.1412   -5.3453    1.5542 H   0  0  0  0  0  0  0  0  0  0  0  0
   -8.1938    4.7166    8.2247 O   0  5  0  0  0  0  0  0  0  0  0  0
  1  2  1  0  0  0  0
  1 28  1  0  0  0  0
  1 29  1  0  0  0  0
  1 30  1  0  0  0  0
  2  3  1  0  0  0  0
  2 31  1  0  0  0  0
  2 32  1  0  0  0  0
  3  4  1  0  0  0  0
  3  5  1  0  0  0  0
  3  6  1  0  0  0  0
  5 33  1  0  0  0  0
  5 34  1  0  0  0  0
  5 35  1  0  0  0  0
  6  7  1  0  0  0  0
  6  8  1  0  0  0  0
  6 10  1  0  0  0  0
  8  9  2  0  0  0  0
  8 53  1  0  0  0  0
 10 11  1  0  0  0  0
 10 36  1  0  0  0  0
 11 15  1  0  0  0  0
 11 12  2  0  0  0  0
 12 13  1  0  0  0  0
 13 14  2  0  0  0  0
 13 16  1  0  0  0  0
 14 15  1  0  0  0  0
 14 37  1  0  0  0  0
 16 21  2  0  0  0  0
 16 17  1  0  0  0  0
 17 18  2  0  0  0  0
 17 38  1  0  0  0  0
 18 19  1  0  0  0  0
 18 24  1  0  0  0  0
 19 20  2  0  0  0  0
 19 39  1  0  0  0  0
 20 21  1  0  0  0  0
 20 40  1  0  0  0  0
 21 22  1  0  0  0  0
 22 23  1  0  0  0  0
 23 41  1  0  0  0  0
 23 42  1  0  0  0  0
 23 43  1  0  0  0  0
 24 25  1  0  0  0  0
 24 26  1  0  0  0  0
 24 27  1  0  0  0  0
 25 44  1  0  0  0  0
 25 45  1  0  0  0  0
 25 46  1  0  0  0  0
 26 47  1  0  0  0  0
 26 48  1  0  0  0  0
 26 49  1  0  0  0  0
 27 50  1  0  0  0  0
 27 51  1  0  0  0  0
 27 52  1  0  0  0  0
M  CHG  1  53  -1
M  END
$$$$
ZINC03856728
  -OEChem-08230709463D

 53 54  0     1  0  0  0  0  0999 V2000
   -6.1355    3.5307   11.4976 C   0  0  0  0  0  0  0  0  0  0  0  0
   -6.7703    3.4609   10.1072 C   0  0  0  0  0  0  0  0  0  0  0  0
   -5.6707    3.3432    9.0499 C   0  0  2  0  0  0  0  0  0  0  0  0
   -5.0347    2.4885    9.2807 H   0  0  0  0  0  0  0  0  0  0  0  0
   -4.8276    4.6200    9.0465 C   0  0  0  0  0  0  0  0  0  0  0  0
   -6.3067    3.1483    7.6721 C   0  0  1  0  0  0  0  0  0  0  0  0
   -6.9770    2.2892    7.6996 H   0  0  0  0  0  0  0  0  0  0  0  0
   -7.0871    4.3826    7.2999 C   0  0  0  0  0  0  0  0  0  0  0  0
   -6.7957    5.0047    6.3060 O   0  0  0  0  0  0  0  0  0  0  0  0
   -5.2562    2.9164    6.6777 N   0  0  0  0  0  0  0  0  0  0  0  0
   -5.5448    2.2216    5.5143 C   0  0  0  0  0  0  0  0  0  0  0  0
   -4.7487    1.9121    4.5073 N   0  0  0  0  0  0  0  0  0  0  0  0
   -5.2009    1.2306    3.4571 C   0  0  0  0  0  0  0  0  0  0  0  0
   -6.5124    0.8507    3.4209 C   0  0  0  0  0  0  0  0  0  0  0  0
   -7.0929    1.5061    4.9798 S   0  0  0  0  0  0  0  0  0  0  0  0
   -4.2918    0.8926    2.3353 C   0  0  0  0  0  0  0  0  0  0  0  0
   -4.7395    0.0878    1.2899 C   0  0  0  0  0  0  0  0  0  0  0  0
   -3.8878   -0.2282    0.2507 C   0  0  0  0  0  0  0  0  0  0  0  0
   -2.5931    0.2597    0.2381 C   0  0  0  0  0  0  0  0  0  0  0  0
   -2.1403    1.0629    1.2681 C   0  0  0  0  0  0  0  0  0  0  0  0
   -2.9829    1.3840    2.3196 C   0  0  0  0  0  0  0  0  0  0  0  0
   -2.5389    2.1735    3.3326 O   0  0  0  0  0  0  0  0  0  0  0  0
   -1.1901    2.6383    3.2493 C   0  0  0  0  0  0  0  0  0  0  0  0
   -4.3716   -1.1026   -0.8773 C   0  0  0  0  0  0  0  0  0  0  0  0
   -3.2448   -1.2929   -1.8946 C   0  0  0  0  0  0  0  0  0  0  0  0
   -5.5686   -0.4381   -1.5604 C   0  0  0  0  0  0  0  0  0  0  0  0
   -4.7928   -2.4647   -0.3221 C   0  0  0  0  0  0  0  0  0  0  0  0
   -6.9189    3.6146   12.2508 H   0  0  0  0  0  0  0  0  0  0  0  0
   -5.5541    2.6264   11.6773 H   0  0  0  0  0  0  0  0  0  0  0  0
   -5.4814    4.4007   11.5552 H   0  0  0  0  0  0  0  0  0  0  0  0
   -7.3518    4.3652    9.9275 H   0  0  0  0  0  0  0  0  0  0  0  0
   -7.4244    2.5909   10.0496 H   0  0  0  0  0  0  0  0  0  0  0  0
   -5.4636    5.4746    8.8157 H   0  0  0  0  0  0  0  0  0  0  0  0
   -4.3745    4.7588   10.0280 H   0  0  0  0  0  0  0  0  0  0  0  0
   -4.0443    4.5361    8.2932 H   0  0  0  0  0  0  0  0  0  0  0  0
   -4.3586    3.2493    6.8338 H   0  0  0  0  0  0  0  0  0  0  0  0
   -7.0504    0.3042    2.6605 H   0  0  0  0  0  0  0  0  0  0  0  0
   -5.7507   -0.2914    1.2944 H   0  0  0  0  0  0  0  0  0  0  0  0
   -1.9333    0.0122   -0.5803 H   0  0  0  0  0  0  0  0  0  0  0  0
   -1.1287    1.4407    1.2527 H   0  0  0  0  0  0  0  0  0  0  0  0
   -0.5126    1.7848    3.2246 H   0  0  0  0  0  0  0  0  0  0  0  0
   -1.0645    3.2283    2.3415 H   0  0  0  0  0  0  0  0  0  0  0  0
   -0.9645    3.2562    4.1184 H   0  0  0  0  0  0  0  0  0  0  0  0
   -2.9447   -0.3225   -2.2901 H   0  0  0  0  0  0  0  0  0  0  0  0
   -3.5948   -1.9253   -2.7104 H   0  0  0  0  0  0  0  0  0  0  0  0
   -2.3921   -1.7663   -1.4079 H   0  0  0  0  0  0  0  0  0  0  0  0
   -5.9186   -1.0706   -2.3762 H   0  0  0  0  0  0  0  0  0  0  0  0
   -6.3714   -0.3026   -0.8356 H   0  0  0  0  0  0  0  0  0  0  0  0
   -5.2685    0.5323   -1.9559 H   0  0  0  0  0  0  0  0  0  0  0  0
   -3.9401   -2.9382    0.1646 H   0  0  0  0  0  0  0  0  0  0  0  0
   -5.5956   -2.3292    0.4027 H   0  0  0  0  0  0  0  0  0  0  0  0
   -5.1428   -3.0972   -1.1379 H   0  0  0  0  0  0  0  0  0  0  0  0
   -8.1059    4.7908    8.0726 O   0  5  0  0  0  0  0  0  0  0  0  0
  1  2  1  0  0  0  0
  1 28  1  0  0  0  0
  1 29  1  0  0  0  0
  1 30  1  0  0  0  0
  2  3  1  0  0  0  0
  2 31  1  0  0  0  0
  2 32  1  0  0  0  0
  3  4  1  0  0  0  0
  3  5  1  0  0  0  0
  3  6  1  0  0  0  0
  5 33  1  0  0  0  0
  5 34  1  0  0  0  0
  5 35  1  0  0  0  0
  6  7  1  0  0  0  0
  6  8  1  0  0  0  0
  6 10  1  0  0  0  0
  8  9  2  0  0  0  0
  8 53  1  0  0  0  0
 10 11  1  0  0  0  0
 10 36  1  0  0  0  0
 11 15  1  0  0  0  0
 11 12  2  0  0  0  0
 12 13  1  0  0  0  0
 13 14  2  0  0  0  0
 13 16  1  0  0  0  0
 14 15  1  0  0  0  0
 14 37  1  0  0  0  0
 16 21  2  0  0  0  0
 16 17  1  0  0  0  0
 17 18  2  0  0  0  0
 17 38  1  0  0  0  0
 18 19  1  0  0  0  0
 18 24  1  0  0  0  0
 19 20  2  0  0  0  0
 19 39  1  0  0  0  0
 20 21  1  0  0  0  0
 20 40  1  0  0  0  0
 21 22  1  0  0  0  0
 22 23  1  0  0  0  0
 23 41  1  0  0  0  0
 23 42  1  0  0  0  0
 23 43  1  0  0  0  0
 24 25  1  0  0  0  0
 24 26  1  0  0  0  0
 24 27  1  0  0  0  0
 25 44  1  0  0  0  0
 25 45  1  0  0  0  0
 25 46  1  0  0  0  0
 26 47  1  0  0  0  0
 26 48  1  0  0  0  0
 26 49  1  0  0  0  0
 27 50  1  0  0  0  0
 27 51  1  0  0  0  0
 27 52  1  0  0  0  0
M  CHG  1  53  -1
M  END
$$$$
ZINC03856729
  -OEChem-08230709463D

 53 54  0     1  0  0  0  0  0999 V2000
   -6.7806    5.9382   10.2787 C   0  0  0  0  0  0  0  0  0  0  0  0
   -7.0590    4.6288    9.5378 C   0  0  0  0  0  0  0  0  0  0  0  0
   -5.9623    4.3877    8.4986 C   0  0  1  0  0  0  0  0  0  0  0  0
   -5.8895    5.2529    7.8397 H   0  0  0  0  0  0  0  0  0  0  0  0
   -4.6244    4.1739    9.2094 C   0  0  0  0  0  0  0  0  0  0  0  0
   -6.3056    3.1458    7.6735 C   0  0  2  0  0  0  0  0  0  0  0  0
   -7.2588    3.2981    7.1672 H   0  0  0  0  0  0  0  0  0  0  0  0
   -6.4063    1.9495    8.5845 C   0  0  0  0  0  0  0  0  0  0  0  0
   -5.6758    1.0014    8.4195 O   0  0  0  0  0  0  0  0  0  0  0  0
   -5.2555    2.9149    6.6785 N   0  0  0  0  0  0  0  0  0  0  0  0
   -5.5441    2.2200    5.5152 C   0  0  0  0  0  0  0  0  0  0  0  0
   -4.7483    1.9112    4.5078 N   0  0  0  0  0  0  0  0  0  0  0  0
   -5.2006    1.2297    3.4576 C   0  0  0  0  0  0  0  0  0  0  0  0
   -6.5118    0.8491    3.4220 C   0  0  0  0  0  0  0  0  0  0  0  0
   -7.0920    1.5037    4.9813 S   0  0  0  0  0  0  0  0  0  0  0  0
   -4.2918    0.8925    2.3353 C   0  0  0  0  0  0  0  0  0  0  0  0
   -4.7398    0.0886    1.2894 C   0  0  0  0  0  0  0  0  0  0  0  0
   -3.8887   -0.2258    0.2492 C   0  0  0  0  0  0  0  0  0  0  0  0
   -2.5943    0.2629    0.2361 C   0  0  0  0  0  0  0  0  0  0  0  0
   -2.1412    1.0653    1.2666 C   0  0  0  0  0  0  0  0  0  0  0  0
   -2.9832    1.3848    2.3191 C   0  0  0  0  0  0  0  0  0  0  0  0
   -2.5389    2.1735    3.3326 O   0  0  0  0  0  0  0  0  0  0  0  0
   -1.1905    2.6391    3.2488 C   0  0  0  0  0  0  0  0  0  0  0  0
   -4.3729   -1.0993   -0.8793 C   0  0  0  0  0  0  0  0  0  0  0  0
   -3.2467   -1.2878   -1.8977 C   0  0  0  0  0  0  0  0  0  0  0  0
   -5.5707   -0.4348   -1.5608 C   0  0  0  0  0  0  0  0  0  0  0  0
   -4.7928   -2.4622   -0.3252 C   0  0  0  0  0  0  0  0  0  0  0  0
   -5.8141    5.8743   10.7786 H   0  0  0  0  0  0  0  0  0  0  0  0
   -6.7673    6.7631    9.5663 H   0  0  0  0  0  0  0  0  0  0  0  0
   -7.5619    6.1100   11.0190 H   0  0  0  0  0  0  0  0  0  0  0  0
   -8.0255    4.6927    9.0378 H   0  0  0  0  0  0  0  0  0  0  0  0
   -7.0723    3.8040   10.2502 H   0  0  0  0  0  0  0  0  0  0  0  0
   -4.6972    3.3086    9.8683 H   0  0  0  0  0  0  0  0  0  0  0  0
   -3.8430    4.0021    8.4691 H   0  0  0  0  0  0  0  0  0  0  0  0
   -4.3798    5.0586    9.7972 H   0  0  0  0  0  0  0  0  0  0  0  0
   -4.3581    3.2485    6.8342 H   0  0  0  0  0  0  0  0  0  0  0  0
   -7.0499    0.3024    2.6617 H   0  0  0  0  0  0  0  0  0  0  0  0
   -5.7510   -0.2908    1.2941 H   0  0  0  0  0  0  0  0  0  0  0  0
   -1.9350    0.0166   -0.5830 H   0  0  0  0  0  0  0  0  0  0  0  0
   -1.1298    1.4438    1.2509 H   0  0  0  0  0  0  0  0  0  0  0  0
   -0.5124    1.7861    3.2227 H   0  0  0  0  0  0  0  0  0  0  0  0
   -1.0659    3.2302    2.3415 H   0  0  0  0  0  0  0  0  0  0  0  0
   -0.9645    3.2563    4.1184 H   0  0  0  0  0  0  0  0  0  0  0  0
   -2.9475   -0.3169   -2.2924 H   0  0  0  0  0  0  0  0  0  0  0  0
   -3.5969   -1.9197   -2.7139 H   0  0  0  0  0  0  0  0  0  0  0  0
   -2.3933   -1.7613   -1.4122 H   0  0  0  0  0  0  0  0  0  0  0  0
   -5.9210   -1.0666   -2.3771 H   0  0  0  0  0  0  0  0  0  0  0  0
   -6.3731   -0.3005   -0.8353 H   0  0  0  0  0  0  0  0  0  0  0  0
   -5.2716    0.5362   -1.9556 H   0  0  0  0  0  0  0  0  0  0  0  0
   -3.9395   -2.9357    0.1603 H   0  0  0  0  0  0  0  0  0  0  0  0
   -5.5952   -2.3279    0.4003 H   0  0  0  0  0  0  0  0  0  0  0  0
   -5.1431   -3.0941   -1.1415 H   0  0  0  0  0  0  0  0  0  0  0  0
   -7.3075    1.9374    9.5792 O   0  5  0  0  0  0  0  0  0  0  0  0
  1  2  1  0  0  0  0
  1 28  1  0  0  0  0
  1 29  1  0  0  0  0
  1 30  1  0  0  0  0
  2  3  1  0  0  0  0
  2 31  1  0  0  0  0
  2 32  1  0  0  0  0
  3  4  1  0  0  0  0
  3  5  1  0  0  0  0
  3  6  1  0  0  0  0
  5 33  1  0  0  0  0
  5 34  1  0  0  0  0
  5 35  1  0  0  0  0
  6  7  1  0  0  0  0
  6  8  1  0  0  0  0
  6 10  1  0  0  0  0
  8  9  2  0  0  0  0
  8 53  1  0  0  0  0
 10 11  1  0  0  0  0
 10 36  1  0  0  0  0
 11 15  1  0  0  0  0
 11 12  2  0  0  0  0
 12 13  1  0  0  0  0
 13 14  2  0  0  0  0
 13 16  1  0  0  0  0
 14 15  1  0  0  0  0
 14 37  1  0  0  0  0
 16 21  2  0  0  0  0
 16 17  1  0  0  0  0
 17 18  2  0  0  0  0
 17 38  1  0  0  0  0
 18 19  1  0  0  0  0
 18 24  1  0  0  0  0
 19 20  2  0  0  0  0
 19 39  1  0  0  0  0
 20 21  1  0  0  0  0
 20 40  1  0  0  0  0
 21 22  1  0  0  0  0
 22 23  1  0  0  0  0
 23 41  1  0  0  0  0
 23 42  1  0  0  0  0
 23 43  1  0  0  0  0
 24 25  1  0  0  0  0
 24 26  1  0  0  0  0
 24 27  1  0  0  0  0
 25 44  1  0  0  0  0
 25 45  1  0  0  0  0
 25 46  1  0  0  0  0
 26 47  1  0  0  0  0
 26 48  1  0  0  0  0
 26 49  1  0  0  0  0
 27 50  1  0  0  0  0
 27 51  1  0  0  0  0
 27 52  1  0  0  0  0
M  CHG  1  53  -1
M  END
$$$$
ZINC03856730
  -OEChem-08230709463D

 53 54  0     1  0  0  0  0  0999 V2000
   -5.2622    6.8887    8.2359 C   0  0  0  0  0  0  0  0  0  0  0  0
   -5.7322    5.6388    7.4891 C   0  0  0  0  0  0  0  0  0  0  0  0
   -5.5678    4.4139    8.3911 C   0  0  2  0  0  0  0  0  0  0  0  0
   -6.0816    4.5874    9.3366 H   0  0  0  0  0  0  0  0  0  0  0  0
   -4.0806    4.1713    8.6559 C   0  0  0  0  0  0  0  0  0  0  0  0
   -6.1696    3.1880    7.7011 C   0  0  2  0  0  0  0  0  0  0  0  0
   -7.2251    3.3677    7.4968 H   0  0  0  0  0  0  0  0  0  0  0  0
   -6.0294    1.9864    8.5998 C   0  0  0  0  0  0  0  0  0  0  0  0
   -5.1310    1.1988    8.4196 O   0  0  0  0  0  0  0  0  0  0  0  0
   -5.4635    2.9409    6.4416 N   0  0  0  0  0  0  0  0  0  0  0  0
   -6.0981    2.2635    5.4130 C   0  0  0  0  0  0  0  0  0  0  0  0
   -5.6407    1.9448    4.2160 N   0  0  0  0  0  0  0  0  0  0  0  0
   -6.3986    1.2847    3.3432 C   0  0  0  0  0  0  0  0  0  0  0  0
   -7.6725    0.9374    3.6925 C   0  0  0  0  0  0  0  0  0  0  0  0
   -7.7528    1.5908    5.3547 S   0  0  0  0  0  0  0  0  0  0  0  0
   -5.8674    0.9354    2.0034 C   0  0  0  0  0  0  0  0  0  0  0  0
   -6.6255    0.1573    1.1312 C   0  0  0  0  0  0  0  0  0  0  0  0
   -6.1244   -0.1694   -0.1128 C   0  0  0  0  0  0  0  0  0  0  0  0
   -4.8758    0.2826   -0.5016 C   0  0  0  0  0  0  0  0  0  0  0  0
   -4.1178    1.0598    0.3541 C   0  0  0  0  0  0  0  0  0  0  0  0
   -4.6060    1.3905    1.6075 C   0  0  0  0  0  0  0  0  0  0  0  0
   -3.8615    2.1541    2.4496 O   0  0  0  0  0  0  0  0  0  0  0  0
   -2.5826    2.5824    1.9774 C   0  0  0  0  0  0  0  0  0  0  0  0
   -6.9428   -1.0161   -1.0532 C   0  0  0  0  0  0  0  0  0  0  0  0
   -6.1685   -1.2251   -2.3562 C   0  0  0  0  0  0  0  0  0  0  0  0
   -8.2665   -0.3103   -1.3541 C   0  0  0  0  0  0  0  0  0  0  0  0
   -7.2242   -2.3727   -0.4041 C   0  0  0  0  0  0  0  0  0  0  0  0
   -5.3793    7.7614    7.5933 H   0  0  0  0  0  0  0  0  0  0  0  0
   -5.8597    7.0191    9.1381 H   0  0  0  0  0  0  0  0  0  0  0  0
   -4.2128    6.7762    8.5082 H   0  0  0  0  0  0  0  0  0  0  0  0
   -5.1346    5.5084    6.5869 H   0  0  0  0  0  0  0  0  0  0  0  0
   -6.7816    5.7513    7.2168 H   0  0  0  0  0  0  0  0  0  0  0  0
   -3.9635    3.2987    9.2985 H   0  0  0  0  0  0  0  0  0  0  0  0
   -3.5668    3.9978    7.7104 H   0  0  0  0  0  0  0  0  0  0  0  0
   -3.6519    5.0447    9.1474 H   0  0  0  0  0  0  0  0  0  0  0  0
   -4.5516    3.2515    6.3277 H   0  0  0  0  0  0  0  0  0  0  0  0
   -8.4238    0.4114    3.1222 H   0  0  0  0  0  0  0  0  0  0  0  0
   -7.6025   -0.1932    1.4295 H   0  0  0  0  0  0  0  0  0  0  0  0
   -4.4918    0.0272   -1.4782 H   0  0  0  0  0  0  0  0  0  0  0  0
   -3.1440    1.4100    0.0449 H   0  0  0  0  0  0  0  0  0  0  0  0
   -1.9681    1.7108    1.7518 H   0  0  0  0  0  0  0  0  0  0  0  0
   -2.7100    3.1805    1.0751 H   0  0  0  0  0  0  0  0  0  0  0  0
   -2.0941    3.1825    2.7451 H   0  0  0  0  0  0  0  0  0  0  0  0
   -5.9680   -0.2586   -2.8186 H   0  0  0  0  0  0  0  0  0  0  0  0
   -6.7604   -1.8375   -3.0364 H   0  0  0  0  0  0  0  0  0  0  0  0
   -5.2255   -1.7279   -2.1418 H   0  0  0  0  0  0  0  0  0  0  0  0
   -8.8584   -0.9228   -2.0343 H   0  0  0  0  0  0  0  0  0  0  0  0
   -8.8181   -0.1615   -0.4259 H   0  0  0  0  0  0  0  0  0  0  0  0
   -8.0660    0.6561   -1.8166 H   0  0  0  0  0  0  0  0  0  0  0  0
   -6.2812   -2.8756   -0.1897 H   0  0  0  0  0  0  0  0  0  0  0  0
   -7.7758   -2.2239    0.5242 H   0  0  0  0  0  0  0  0  0  0  0  0
   -7.8161   -2.9852   -1.0842 H   0  0  0  0  0  0  0  0  0  0  0  0
   -6.9025    1.7912    9.6004 O   0  5  0  0  0  0  0  0  0  0  0  0
  1  2  1  0  0  0  0
  1 28  1  0  0  0  0
  1 29  1  0  0  0  0
  1 30  1  0  0  0  0
  2  3  1  0  0  0  0
  2 31  1  0  0  0  0
  2 32  1  0  0  0  0
  3  4  1  0  0  0  0
  3  5  1  0  0  0  0
  3  6  1  0  0  0  0
  5 33  1  0  0  0  0
  5 34  1  0  0  0  0
  5 35  1  0  0  0  0
  6  7  1  0  0  0  0
  6  8  1  0  0  0  0
  6 10  1  0  0  0  0
  8  9  2  0  0  0  0
  8 53  1  0  0  0  0
 10 11  1  0  0  0  0
 10 36  1  0  0  0  0
 11 15  1  0  0  0  0
 11 12  2  0  0  0  0
 12 13  1  0  0  0  0
 13 14  2  0  0  0  0
 13 16  1  0  0  0  0
 14 15  1  0  0  0  0
 14 37  1  0  0  0  0
 16 21  2  0  0  0  0
 16 17  1  0  0  0  0
 17 18  2  0  0  0  0
 17 38  1  0  0  0  0
 18 19  1  0  0  0  0
 18 24  1  0  0  0  0
 19 20  2  0  0  0  0
 19 39  1  0  0  0  0
 20 21  1  0  0  0  0
 20 40  1  0  0  0  0
 21 22  1  0  0  0  0
 22 23  1  0  0  0  0
 23 41  1  0  0  0  0
 23 42  1  0  0  0  0
 23 43  1  0  0  0  0
 24 25  1  0  0  0  0
 24 26  1  0  0  0  0
 24 27  1  0  0  0  0
 25 44  1  0  0  0  0
 25 45  1  0  0  0  0
 25 46  1  0  0  0  0
 26 47  1  0  0  0  0
 26 48  1  0  0  0  0
 26 49  1  0  0  0  0
 27 50  1  0  0  0  0
 27 51  1  0  0  0  0
 27 52  1  0  0  0  0
M  CHG  1  53  -1
M  END
$$$$
ZINC03856731
  -OEChem-08230709463D

 56 57  0     1  0  0  0  0  0999 V2000
   -1.1984    1.4460   -2.0077 C   0  0  0  0  0  0  0  0  0  0  0  0
   -0.3610    0.8245   -0.8881 C   0  0  0  0  0  0  0  0  0  0  0  0
   -0.8759    1.2396    0.3785 O   0  0  0  0  0  0  0  0  0  0  0  0
   -0.2411    0.7728    1.4856 C   0  0  0  0  0  0  0  0  0  0  0  0
    0.8499   -0.0710    1.3573 C   0  0  0  0  0  0  0  0  0  0  0  0
    1.4980   -0.5415    2.4841 C   0  0  0  0  0  0  0  0  0  0  0  0
    1.0558   -0.1821    3.7450 C   0  0  0  0  0  0  0  0  0  0  0  0
   -0.0334    0.6538    3.8874 C   0  0  0  0  0  0  0  0  0  0  0  0
   -0.6904    1.1378    2.7583 C   0  0  0  0  0  0  0  0  0  0  0  0
   -1.8614    2.0358    2.9056 C   0  0  0  0  0  0  0  0  0  0  0  0
   -2.3770    2.3002    4.1425 C   0  0  0  0  0  0  0  0  0  0  0  0
   -3.7201    3.4004    3.7161 S   0  0  0  0  0  0  0  0  0  0  0  0
   -3.4674    3.3900    1.9469 C   0  0  0  0  0  0  0  0  0  0  0  0
   -2.4244    2.5882    1.8334 N   0  0  0  0  0  0  0  0  0  0  0  0
   -4.1781    4.0485    0.9565 N   0  0  0  0  0  0  0  0  0  0  0  0
   -5.3162    4.8989    1.3139 C   0  0  1  0  0  0  0  0  0  0  0  0
   -5.1162    5.3930    2.2646 H   0  0  0  0  0  0  0  0  0  0  0  0
   -5.5266    5.9533    0.2254 C   0  0  0  0  0  0  0  0  0  0  0  0
   -4.3053    6.8727    0.1630 C   0  0  0  0  0  0  0  0  0  0  0  0
   -4.4532    7.8380   -1.0148 C   0  0  0  0  0  0  0  0  0  0  0  0
   -4.1994    7.6692    1.4651 C   0  0  0  0  0  0  0  0  0  0  0  0
   -6.5563    4.0518    1.4392 C   0  0  0  0  0  0  0  0  0  0  0  0
   -6.4956    2.8601    1.2494 O   0  0  0  0  0  0  0  0  0  0  0  0
    1.7655   -0.7056    4.9670 C   0  0  0  0  0  0  0  0  0  0  0  0
    0.7853   -1.5149    5.8185 C   0  0  0  0  0  0  0  0  0  0  0  0
    2.9281   -1.6023    4.5367 C   0  0  0  0  0  0  0  0  0  0  0  0
    2.3037    0.4690    5.7865 C   0  0  0  0  0  0  0  0  0  0  0  0
   -0.8056    1.1293   -2.9738 H   0  0  0  0  0  0  0  0  0  0  0  0
   -2.2337    1.1188   -1.9114 H   0  0  0  0  0  0  0  0  0  0  0  0
   -1.1525    2.5326   -1.9352 H   0  0  0  0  0  0  0  0  0  0  0  0
   -0.4068   -0.2622   -0.9606 H   0  0  0  0  0  0  0  0  0  0  0  0
    0.6743    1.1516   -0.9844 H   0  0  0  0  0  0  0  0  0  0  0  0
    1.1972   -0.3583    0.3758 H   0  0  0  0  0  0  0  0  0  0  0  0
    2.3508   -1.1959    2.3798 H   0  0  0  0  0  0  0  0  0  0  0  0
   -0.3756    0.9325    4.8731 H   0  0  0  0  0  0  0  0  0  0  0  0
   -2.0598    1.9437    5.1114 H   0  0  0  0  0  0  0  0  0  0  0  0
   -3.9220    3.9465    0.0265 H   0  0  0  0  0  0  0  0  0  0  0  0
   -5.6597    5.4601   -0.7374 H   0  0  0  0  0  0  0  0  0  0  0  0
   -6.4137    6.5428    0.4573 H   0  0  0  0  0  0  0  0  0  0  0  0
   -3.4051    6.2725    0.0301 H   0  0  0  0  0  0  0  0  0  0  0  0
   -5.3969    8.3763   -0.9271 H   0  0  0  0  0  0  0  0  0  0  0  0
   -3.6272    8.5492   -1.0076 H   0  0  0  0  0  0  0  0  0  0  0  0
   -4.4407    7.2762   -1.9488 H   0  0  0  0  0  0  0  0  0  0  0  0
   -4.0940    6.9815    2.3041 H   0  0  0  0  0  0  0  0  0  0  0  0
   -3.3293    8.3241    1.4206 H   0  0  0  0  0  0  0  0  0  0  0  0
   -5.0995    8.2694    1.5980 H   0  0  0  0  0  0  0  0  0  0  0  0
    0.4019   -2.3517    5.2347 H   0  0  0  0  0  0  0  0  0  0  0  0
    1.2986   -1.8935    6.7024 H   0  0  0  0  0  0  0  0  0  0  0  0
   -0.0430   -0.8760    6.1251 H   0  0  0  0  0  0  0  0  0  0  0  0
    3.6264   -1.0257    3.9300 H   0  0  0  0  0  0  0  0  0  0  0  0
    3.4414   -1.9809    5.4206 H   0  0  0  0  0  0  0  0  0  0  0  0
    2.5447   -2.4391    3.9529 H   0  0  0  0  0  0  0  0  0  0  0  0
    1.4754    1.1079    6.0931 H   0  0  0  0  0  0  0  0  0  0  0  0
    2.8170    0.0905    6.6704 H   0  0  0  0  0  0  0  0  0  0  0  0
    3.0020    1.0456    5.1798 H   0  0  0  0  0  0  0  0  0  0  0  0
   -7.7283    4.6213    1.7616 O   0  5  0  0  0  0  0  0  0  0  0  0
  1  2  1  0  0  0  0
  1 28  1  0  0  0  0
  1 29  1  0  0  0  0
  1 30  1  0  0  0  0
  2  3  1  0  0  0  0
  2 31  1  0  0  0  0
  2 32  1  0  0  0  0
  3  4  1  0  0  0  0
  4  9  2  0  0  0  0
  4  5  1  0  0  0  0
  5  6  2  0  0  0  0
  5 33  1  0  0  0  0
  6  7  1  0  0  0  0
  6 34  1  0  0  0  0
  7  8  2  0  0  0  0
  7 24  1  0  0  0  0
  8  9  1  0  0  0  0
  8 35  1  0  0  0  0
  9 10  1  0  0  0  0
 10 14  1  0  0  0  0
 10 11  2  0  0  0  0
 11 12  1  0  0  0  0
 11 36  1  0  0  0  0
 12 13  1  0  0  0  0
 13 14  2  0  0  0  0
 13 15  1  0  0  0  0
 15 16  1  0  0  0  0
 15 37  1  0  0  0  0
 16 17  1  0  0  0  0
 16 18  1  0  0  0  0
 16 22  1  0  0  0  0
 18 19  1  0  0  0  0
 18 38  1  0  0  0  0
 18 39  1  0  0  0  0
 19 20  1  0  0  0  0
 19 21  1  0  0  0  0
 19 40  1  0  0  0  0
 20 41  1  0  0  0  0
 20 42  1  0  0  0  0
 20 43  1  0  0  0  0
 21 44  1  0  0  0  0
 21 45  1  0  0  0  0
 21 46  1  0  0  0  0
 22 23  2  0  0  0  0
 22 56  1  0  0  0  0
 24 25  1  0  0  0  0
 24 26  1  0  0  0  0
 24 27  1  0  0  0  0
 25 47  1  0  0  0  0
 25 48  1  0  0  0  0
 25 49  1  0  0  0  0
 26 50  1  0  0  0  0
 26 51  1  0  0  0  0
 26 52  1  0  0  0  0
 27 53  1  0  0  0  0
 27 54  1  0  0  0  0
 27 55  1  0  0  0  0
M  CHG  1  56  -1
M  END
$$$$
ZINC03856732
  -OEChem-08230709463D

 56 57  0     1  0  0  0  0  0999 V2000
   -8.3684    5.6585   -0.9261 C   0  0  0  0  0  0  0  0  0  0  0  0
   -7.4758    5.7952    0.3090 C   0  0  0  0  0  0  0  0  0  0  0  0
   -6.2129    4.9521    0.1215 C   0  0  1  0  0  0  0  0  0  0  0  0
   -6.4932    3.9224   -0.1004 H   0  0  0  0  0  0  0  0  0  0  0  0
   -5.3896    5.5176   -1.0375 C   0  0  0  0  0  0  0  0  0  0  0  0
   -5.3800    4.9888    1.4043 C   0  0  2  0  0  0  0  0  0  0  0  0
   -5.9665    4.5860    2.2300 H   0  0  0  0  0  0  0  0  0  0  0  0
   -4.9925    6.4125    1.7111 C   0  0  0  0  0  0  0  0  0  0  0  0
   -3.8260    6.7211    1.7733 O   0  0  0  0  0  0  0  0  0  0  0  0
   -4.1708    4.1815    1.2248 N   0  0  0  0  0  0  0  0  0  0  0  0
   -3.5354    3.6312    2.3261 C   0  0  0  0  0  0  0  0  0  0  0  0
   -2.4483    2.8832    2.3756 N   0  0  0  0  0  0  0  0  0  0  0  0
   -1.9728    2.4364    3.5358 C   0  0  0  0  0  0  0  0  0  0  0  0
   -2.6254    2.7545    4.6927 C   0  0  0  0  0  0  0  0  0  0  0  0
   -3.9697    3.7464    4.0559 S   0  0  0  0  0  0  0  0  0  0  0  0
   -0.7507    1.5970    3.5713 C   0  0  0  0  0  0  0  0  0  0  0  0
   -0.1925    1.2252    4.7924 C   0  0  0  0  0  0  0  0  0  0  0  0
    0.9447    0.4434    4.8201 C   0  0  0  0  0  0  0  0  0  0  0  0
    1.5327    0.0268    3.6389 C   0  0  0  0  0  0  0  0  0  0  0  0
    0.9841    0.3862    2.4220 C   0  0  0  0  0  0  0  0  0  0  0  0
   -0.1539    1.1748    2.3795 C   0  0  0  0  0  0  0  0  0  0  0  0
   -0.6916    1.5321    1.1838 O   0  0  0  0  0  0  0  0  0  0  0  0
   -0.0277    1.0640    0.0081 C   0  0  0  0  0  0  0  0  0  0  0  0
   -0.7728    1.5634   -1.2313 C   0  0  0  0  0  0  0  0  0  0  0  0
    1.5478    0.0418    6.1415 C   0  0  0  0  0  0  0  0  0  0  0  0
    0.5245   -0.7627    6.9456 C   0  0  0  0  0  0  0  0  0  0  0  0
    2.7909   -0.8155    5.8953 C   0  0  0  0  0  0  0  0  0  0  0  0
    1.9402    1.2959    6.9252 C   0  0  0  0  0  0  0  0  0  0  0  0
   -9.2680    6.2592   -0.7925 H   0  0  0  0  0  0  0  0  0  0  0  0
   -7.8269    6.0060   -1.8060 H   0  0  0  0  0  0  0  0  0  0  0  0
   -8.6461    4.6130   -1.0598 H   0  0  0  0  0  0  0  0  0  0  0  0
   -8.0173    5.4478    1.1889 H   0  0  0  0  0  0  0  0  0  0  0  0
   -7.1981    6.8408    0.4427 H   0  0  0  0  0  0  0  0  0  0  0  0
   -5.1093    6.5473   -0.8157 H   0  0  0  0  0  0  0  0  0  0  0  0
   -4.4899    4.9169   -1.1711 H   0  0  0  0  0  0  0  0  0  0  0  0
   -5.9830    5.4914   -1.9515 H   0  0  0  0  0  0  0  0  0  0  0  0
   -3.8150    4.0322    0.3348 H   0  0  0  0  0  0  0  0  0  0  0  0
   -2.3925    2.4830    5.7118 H   0  0  0  0  0  0  0  0  0  0  0  0
   -0.6489    1.5486    5.7163 H   0  0  0  0  0  0  0  0  0  0  0  0
    2.4222   -0.5850    3.6679 H   0  0  0  0  0  0  0  0  0  0  0  0
    1.4452    0.0545    1.5034 H   0  0  0  0  0  0  0  0  0  0  0  0
   -0.0131   -0.0259    0.0087 H   0  0  0  0  0  0  0  0  0  0  0  0
    0.9949    1.4410   -0.0062 H   0  0  0  0  0  0  0  0  0  0  0  0
   -1.7954    1.1864   -1.2170 H   0  0  0  0  0  0  0  0  0  0  0  0
   -0.7874    2.6533   -1.2319 H   0  0  0  0  0  0  0  0  0  0  0  0
   -0.2664    1.2063   -2.1281 H   0  0  0  0  0  0  0  0  0  0  0  0
    0.2450   -1.6561    6.3873 H   0  0  0  0  0  0  0  0  0  0  0  0
    0.9607   -1.0532    7.9014 H   0  0  0  0  0  0  0  0  0  0  0  0
   -0.3611   -0.1519    7.1210 H   0  0  0  0  0  0  0  0  0  0  0  0
    3.5199   -0.2423    5.3224 H   0  0  0  0  0  0  0  0  0  0  0  0
    3.2271   -1.1059    6.8511 H   0  0  0  0  0  0  0  0  0  0  0  0
    2.5113   -1.7089    5.3370 H   0  0  0  0  0  0  0  0  0  0  0  0
    1.0546    1.9067    7.1007 H   0  0  0  0  0  0  0  0  0  0  0  0
    2.3763    1.0054    7.8810 H   0  0  0  0  0  0  0  0  0  0  0  0
    2.6692    1.8691    6.3524 H   0  0  0  0  0  0  0  0  0  0  0  0
   -5.9433    7.3377    1.9152 O   0  5  0  0  0  0  0  0  0  0  0  0
  1  2  1  0  0  0  0
  1 29  1  0  0  0  0
  1 30  1  0  0  0  0
  1 31  1  0  0  0  0
  2  3  1  0  0  0  0
  2 32  1  0  0  0  0
  2 33  1  0  0  0  0
  3  4  1  0  0  0  0
  3  5  1  0  0  0  0
  3  6  1  0  0  0  0
  5 34  1  0  0  0  0
  5 35  1  0  0  0  0
  5 36  1  0  0  0  0
  6  7  1  0  0  0  0
  6  8  1  0  0  0  0
  6 10  1  0  0  0  0
  8  9  2  0  0  0  0
  8 56  1  0  0  0  0
 10 11  1  0  0  0  0
 10 37  1  0  0  0  0
 11 15  1  0  0  0  0
 11 12  2  0  0  0  0
 12 13  1  0  0  0  0
 13 14  2  0  0  0  0
 13 16  1  0  0  0  0
 14 15  1  0  0  0  0
 14 38  1  0  0  0  0
 16 21  2  0  0  0  0
 16 17  1  0  0  0  0
 17 18  2  0  0  0  0
 17 39  1  0  0  0  0
 18 19  1  0  0  0  0
 18 25  1  0  0  0  0
 19 20  2  0  0  0  0
 19 40  1  0  0  0  0
 20 21  1  0  0  0  0
 20 41  1  0  0  0  0
 21 22  1  0  0  0  0
 22 23  1  0  0  0  0
 23 24  1  0  0  0  0
 23 42  1  0  0  0  0
 23 43  1  0  0  0  0
 24 44  1  0  0  0  0
 24 45  1  0  0  0  0
 24 46  1  0  0  0  0
 25 26  1  0  0  0  0
 25 27  1  0  0  0  0
 25 28  1  0  0  0  0
 26 47  1  0  0  0  0
 26 48  1  0  0  0  0
 26 49  1  0  0  0  0
 27 50  1  0  0  0  0
 27 51  1  0  0  0  0
 27 52  1  0  0  0  0
 28 53  1  0  0  0  0
 28 54  1  0  0  0  0
 28 55  1  0  0  0  0
M  CHG  1  56  -1
M  END
$$$$
ZINC03856733
  -OEChem-08230709463D

 51 52  0     1  0  0  0  0  0999 V2000
   -0.7728    1.5633   -1.2313 C   0  0  0  0  0  0  0  0  0  0  0  0
   -0.0277    1.0639    0.0081 C   0  0  0  0  0  0  0  0  0  0  0  0
   -0.6916    1.5321    1.1838 O   0  0  0  0  0  0  0  0  0  0  0  0
   -0.1539    1.1748    2.3795 C   0  0  0  0  0  0  0  0  0  0  0  0
    0.9841    0.3862    2.4220 C   0  0  0  0  0  0  0  0  0  0  0  0
    1.5333    0.0277    3.6389 C   0  0  0  0  0  0  0  0  0  0  0  0
    0.9453    0.4443    4.8201 C   0  0  0  0  0  0  0  0  0  0  0  0
   -0.1922    1.2257    4.7924 C   0  0  0  0  0  0  0  0  0  0  0  0
   -0.7507    1.5970    3.5713 C   0  0  0  0  0  0  0  0  0  0  0  0
   -1.9726    2.4368    3.5358 C   0  0  0  0  0  0  0  0  0  0  0  0
   -2.6251    2.7549    4.6927 C   0  0  0  0  0  0  0  0  0  0  0  0
   -3.9685    3.7480    4.0560 S   0  0  0  0  0  0  0  0  0  0  0  0
   -3.5344    3.6326    2.3261 C   0  0  0  0  0  0  0  0  0  0  0  0
   -2.4478    2.8838    2.3756 N   0  0  0  0  0  0  0  0  0  0  0  0
   -4.1699    4.1826    1.2248 N   0  0  0  0  0  0  0  0  0  0  0  0
   -5.3785    4.9909    1.4044 C   0  0  1  0  0  0  0  0  0  0  0  0
   -5.9649    4.5889    2.2306 H   0  0  0  0  0  0  0  0  0  0  0  0
   -4.9840    6.4362    1.7148 C   0  0  1  0  0  0  0  0  0  0  0  0
   -5.8790    7.0177    1.9358 H   0  0  0  0  0  0  0  0  0  0  0  0
   -4.0482    6.4608    2.9250 C   0  0  0  0  0  0  0  0  0  0  0  0
   -4.3161    7.0008    0.5847 O   0  0  0  0  0  0  0  0  0  0  0  0
   -6.1995    4.9545    0.1412 C   0  0  0  0  0  0  0  0  0  0  0  0
   -5.8146    4.3186   -0.8113 O   0  0  0  0  0  0  0  0  0  0  0  0
    1.5487    0.0432    6.1415 C   0  0  0  0  0  0  0  0  0  0  0  0
    0.5259   -0.7615    6.9459 C   0  0  0  0  0  0  0  0  0  0  0  0
    2.7921   -0.8137    5.8953 C   0  0  0  0  0  0  0  0  0  0  0  0
    1.9408    1.2976    6.9249 C   0  0  0  0  0  0  0  0  0  0  0  0
   -0.7874    2.6532   -1.2319 H   0  0  0  0  0  0  0  0  0  0  0  0
   -0.2665    1.2063   -2.1281 H   0  0  0  0  0  0  0  0  0  0  0  0
   -1.7955    1.1863   -1.2170 H   0  0  0  0  0  0  0  0  0  0  0  0
   -0.0132   -0.0260    0.0087 H   0  0  0  0  0  0  0  0  0  0  0  0
    0.9949    1.4410   -0.0062 H   0  0  0  0  0  0  0  0  0  0  0  0
    1.4450    0.0543    1.5034 H   0  0  0  0  0  0  0  0  0  0  0  0
    2.4231   -0.5838    3.6679 H   0  0  0  0  0  0  0  0  0  0  0  0
   -0.6485    1.5491    5.7163 H   0  0  0  0  0  0  0  0  0  0  0  0
   -2.3929    2.4825    5.7117 H   0  0  0  0  0  0  0  0  0  0  0  0
   -3.8147    4.0326    0.3347 H   0  0  0  0  0  0  0  0  0  0  0  0
   -3.1531    5.8793    2.7040 H   0  0  0  0  0  0  0  0  0  0  0  0
   -3.7671    7.4904    3.1461 H   0  0  0  0  0  0  0  0  0  0  0  0
   -4.5576    6.0301    3.7870 H   0  0  0  0  0  0  0  0  0  0  0  0
   -3.5088    6.5329    0.3306 H   0  0  0  0  0  0  0  0  0  0  0  0
    0.2466   -1.6552    6.3878 H   0  0  0  0  0  0  0  0  0  0  0  0
    0.9623   -1.0517    7.9017 H   0  0  0  0  0  0  0  0  0  0  0  0
   -0.3599   -0.1511    7.1213 H   0  0  0  0  0  0  0  0  0  0  0  0
    3.5208   -0.2403    5.3222 H   0  0  0  0  0  0  0  0  0  0  0  0
    3.2285   -1.1038    6.8510 H   0  0  0  0  0  0  0  0  0  0  0  0
    2.5128   -1.7073    5.3372 H   0  0  0  0  0  0  0  0  0  0  0  0
    1.0550    1.9080    7.1003 H   0  0  0  0  0  0  0  0  0  0  0  0
    2.3772    1.0075    7.8807 H   0  0  0  0  0  0  0  0  0  0  0  0
    2.6695    1.8709    6.3518 H   0  0  0  0  0  0  0  0  0  0  0  0
   -7.3584    5.6285    0.0744 O   0  5  0  0  0  0  0  0  0  0  0  0
  1  2  1  0  0  0  0
  1 28  1  0  0  0  0
  1 29  1  0  0  0  0
  1 30  1  0  0  0  0
  2  3  1  0  0  0  0
  2 31  1  0  0  0  0
  2 32  1  0  0  0  0
  3  4  1  0  0  0  0
  4  9  2  0  0  0  0
  4  5  1  0  0  0  0
  5  6  2  0  0  0  0
  5 33  1  0  0  0  0
  6  7  1  0  0  0  0
  6 34  1  0  0  0  0
  7  8  2  0  0  0  0
  7 24  1  0  0  0  0
  8  9  1  0  0  0  0
  8 35  1  0  0  0  0
  9 10  1  0  0  0  0
 10 14  1  0  0  0  0
 10 11  2  0  0  0  0
 11 12  1  0  0  0  0
 11 36  1  0  0  0  0
 12 13  1  0  0  0  0
 13 14  2  0  0  0  0
 13 15  1  0  0  0  0
 15 16  1  0  0  0  0
 15 37  1  0  0  0  0
 16 17  1  0  0  0  0
 16 18  1  0  0  0  0
 16 22  1  0  0  0  0
 18 19  1  0  0  0  0
 18 20  1  0  0  0  0
 18 21  1  0  0  0  0
 20 38  1  0  0  0  0
 20 39  1  0  0  0  0
 20 40  1  0  0  0  0
 21 41  1  0  0  0  0
 22 23  2  0  0  0  0
 22 51  1  0  0  0  0
 24 25  1  0  0  0  0
 24 26  1  0  0  0  0
 24 27  1  0  0  0  0
 25 42  1  0  0  0  0
 25 43  1  0  0  0  0
 25 44  1  0  0  0  0
 26 45  1  0  0  0  0
 26 46  1  0  0  0  0
 26 47  1  0  0  0  0
 27 48  1  0  0  0  0
 27 49  1  0  0  0  0
 27 50  1  0  0  0  0
M  CHG  1  51  -1
M  END
$$$$
ZINC03856734
  -OEChem-08230709463D

 51 52  0     1  0  0  0  0  0999 V2000
   -4.0311   -1.9687    7.5206 C   0  0  0  0  0  0  0  0  0  0  0  0
   -4.9930   -2.5321    6.4725 C   0  0  0  0  0  0  0  0  0  0  0  0
   -4.6941   -1.9623    5.1966 O   0  0  0  0  0  0  0  0  0  0  0  0
   -5.4620   -2.3599    4.1483 C   0  0  0  0  0  0  0  0  0  0  0  0
   -6.4838   -3.2747    4.3427 C   0  0  0  0  0  0  0  0  0  0  0  0
   -7.2609   -3.6824    3.2746 C   0  0  0  0  0  0  0  0  0  0  0  0
   -7.0269   -3.1773    2.0079 C   0  0  0  0  0  0  0  0  0  0  0  0
   -6.0151   -2.2615    1.8009 C   0  0  0  0  0  0  0  0  0  0  0  0
   -5.2263   -1.8436    2.8705 C   0  0  0  0  0  0  0  0  0  0  0  0
   -4.1376   -0.8602    2.6535 C   0  0  0  0  0  0  0  0  0  0  0  0
   -3.8275   -0.4414    1.3911 C   0  0  0  0  0  0  0  0  0  0  0  0
   -2.4958    0.7006    1.7359 S   0  0  0  0  0  0  0  0  0  0  0  0
   -2.4797    0.4990    3.5116 C   0  0  0  0  0  0  0  0  0  0  0  0
   -3.4522   -0.3768    3.6872 N   0  0  0  0  0  0  0  0  0  0  0  0
   -1.6661    1.1055    4.4548 N   0  0  0  0  0  0  0  0  0  0  0  0
   -0.6379    2.0590    4.0307 C   0  0  2  0  0  0  0  0  0  0  0  0
   -0.2247    1.7453    3.0721 H   0  0  0  0  0  0  0  0  0  0  0  0
    0.4779    2.1046    5.0766 C   0  0  1  0  0  0  0  0  0  0  0  0
    0.8610    1.0978    5.2433 H   0  0  0  0  0  0  0  0  0  0  0  0
    1.6095    3.0045    4.5762 C   0  0  0  0  0  0  0  0  0  0  0  0
   -0.0392    2.6265    6.3023 O   0  0  0  0  0  0  0  0  0  0  0  0
   -1.2505    3.4287    3.8897 C   0  0  0  0  0  0  0  0  0  0  0  0
   -2.4253    3.5916    4.1198 O   0  0  0  0  0  0  0  0  0  0  0  0
   -7.8792   -3.6291    0.8501 C   0  0  0  0  0  0  0  0  0  0  0  0
   -6.9931   -4.2879   -0.2090 C   0  0  0  0  0  0  0  0  0  0  0  0
   -8.9183   -4.6374    1.3447 C   0  0  0  0  0  0  0  0  0  0  0  0
   -8.5916   -2.4207    0.2392 C   0  0  0  0  0  0  0  0  0  0  0  0
   -4.2590   -2.4034    8.4938 H   0  0  0  0  0  0  0  0  0  0  0  0
   -3.0063   -2.2159    7.2433 H   0  0  0  0  0  0  0  0  0  0  0  0
   -4.1427   -0.8856    7.5712 H   0  0  0  0  0  0  0  0  0  0  0  0
   -6.0177   -2.2850    6.7498 H   0  0  0  0  0  0  0  0  0  0  0  0
   -4.8814   -3.6152    6.4219 H   0  0  0  0  0  0  0  0  0  0  0  0
   -6.6710   -3.6727    5.3291 H   0  0  0  0  0  0  0  0  0  0  0  0
   -8.0542   -4.3987    3.4296 H   0  0  0  0  0  0  0  0  0  0  0  0
   -5.8354   -1.8690    0.8109 H   0  0  0  0  0  0  0  0  0  0  0  0
   -4.2683   -0.7199    0.4453 H   0  0  0  0  0  0  0  0  0  0  0  0
   -1.7773    0.8989    5.3960 H   0  0  0  0  0  0  0  0  0  0  0  0
    1.2264    4.0113    4.4095 H   0  0  0  0  0  0  0  0  0  0  0  0
    2.4044    3.0370    5.3213 H   0  0  0  0  0  0  0  0  0  0  0  0
    2.0039    2.6064    3.6413 H   0  0  0  0  0  0  0  0  0  0  0  0
   -0.3978    3.5215    6.2285 H   0  0  0  0  0  0  0  0  0  0  0  0
   -6.4856   -5.1488    0.2262 H   0  0  0  0  0  0  0  0  0  0  0  0
   -7.6096   -4.6146   -1.0464 H   0  0  0  0  0  0  0  0  0  0  0  0
   -6.2528   -3.5696   -0.5613 H   0  0  0  0  0  0  0  0  0  0  0  0
   -9.5496   -4.1680    2.0992 H   0  0  0  0  0  0  0  0  0  0  0  0
   -9.5348   -4.9641    0.5073 H   0  0  0  0  0  0  0  0  0  0  0  0
   -8.4108   -5.4982    1.7799 H   0  0  0  0  0  0  0  0  0  0  0  0
   -7.8513   -1.7024   -0.1131 H   0  0  0  0  0  0  0  0  0  0  0  0
   -9.2081   -2.7474   -0.5982 H   0  0  0  0  0  0  0  0  0  0  0  0
   -9.2229   -1.9514    0.9937 H   0  0  0  0  0  0  0  0  0  0  0  0
   -0.4897    4.4687    3.5138 O   0  5  0  0  0  0  0  0  0  0  0  0
  1  2  1  0  0  0  0
  1 28  1  0  0  0  0
  1 29  1  0  0  0  0
  1 30  1  0  0  0  0
  2  3  1  0  0  0  0
  2 31  1  0  0  0  0
  2 32  1  0  0  0  0
  3  4  1  0  0  0  0
  4  9  2  0  0  0  0
  4  5  1  0  0  0  0
  5  6  2  0  0  0  0
  5 33  1  0  0  0  0
  6  7  1  0  0  0  0
  6 34  1  0  0  0  0
  7  8  2  0  0  0  0
  7 24  1  0  0  0  0
  8  9  1  0  0  0  0
  8 35  1  0  0  0  0
  9 10  1  0  0  0  0
 10 14  1  0  0  0  0
 10 11  2  0  0  0  0
 11 12  1  0  0  0  0
 11 36  1  0  0  0  0
 12 13  1  0  0  0  0
 13 14  2  0  0  0  0
 13 15  1  0  0  0  0
 15 16  1  0  0  0  0
 15 37  1  0  0  0  0
 16 17  1  0  0  0  0
 16 18  1  0  0  0  0
 16 22  1  0  0  0  0
 18 19  1  0  0  0  0
 18 20  1  0  0  0  0
 18 21  1  0  0  0  0
 20 38  1  0  0  0  0
 20 39  1  0  0  0  0
 20 40  1  0  0  0  0
 21 41  1  0  0  0  0
 22 23  2  0  0  0  0
 22 51  1  0  0  0  0
 24 25  1  0  0  0  0
 24 26  1  0  0  0  0
 24 27  1  0  0  0  0
 25 42  1  0  0  0  0
 25 43  1  0  0  0  0
 25 44  1  0  0  0  0
 26 45  1  0  0  0  0
 26 46  1  0  0  0  0
 26 47  1  0  0  0  0
 27 48  1  0  0  0  0
 27 49  1  0  0  0  0
 27 50  1  0  0  0  0
M  CHG  1  51  -1
M  END
$$$$
ZINC03856735
  -OEChem-08230709463D

 51 52  0     1  0  0  0  0  0999 V2000
   -0.7729    1.5633   -1.2313 C   0  0  0  0  0  0  0  0  0  0  0  0
   -0.0278    1.0639    0.0081 C   0  0  0  0  0  0  0  0  0  0  0  0
   -0.6916    1.5321    1.1838 O   0  0  0  0  0  0  0  0  0  0  0  0
   -0.1539    1.1748    2.3795 C   0  0  0  0  0  0  0  0  0  0  0  0
    0.9841    0.3862    2.4220 C   0  0  0  0  0  0  0  0  0  0  0  0
    1.5330    0.0272    3.6389 C   0  0  0  0  0  0  0  0  0  0  0  0
    0.9448    0.4435    4.8201 C   0  0  0  0  0  0  0  0  0  0  0  0
   -0.1925    1.2252    4.7924 C   0  0  0  0  0  0  0  0  0  0  0  0
   -0.7507    1.5970    3.5713 C   0  0  0  0  0  0  0  0  0  0  0  0
   -1.9722    2.4372    3.5358 C   0  0  0  0  0  0  0  0  0  0  0  0
   -2.6249    2.7554    4.6927 C   0  0  0  0  0  0  0  0  0  0  0  0
   -3.9684    3.7483    4.0559 S   0  0  0  0  0  0  0  0  0  0  0  0
   -3.5337    3.6334    2.3261 C   0  0  0  0  0  0  0  0  0  0  0  0
   -2.4472    2.8847    2.3756 N   0  0  0  0  0  0  0  0  0  0  0  0
   -4.1685    4.1845    1.2248 N   0  0  0  0  0  0  0  0  0  0  0  0
   -5.3773    4.9926    1.4044 C   0  0  1  0  0  0  0  0  0  0  0  0
   -5.3011    5.5590    2.3325 H   0  0  0  0  0  0  0  0  0  0  0  0
   -5.5240    5.9592    0.2276 C   0  0  2  0  0  0  0  0  0  0  0  0
   -4.6151    6.5527    0.1293 H   0  0  0  0  0  0  0  0  0  0  0  0
   -6.7149    6.8873    0.4753 C   0  0  0  0  0  0  0  0  0  0  0  0
   -5.7405    5.2171   -0.9743 O   0  0  0  0  0  0  0  0  0  0  0  0
   -6.5815    4.0885    1.4651 C   0  0  0  0  0  0  0  0  0  0  0  0
   -6.4441    2.8920    1.3683 O   0  0  0  0  0  0  0  0  0  0  0  0
    1.5475    0.0414    6.1415 C   0  0  0  0  0  0  0  0  0  0  0  0
    0.5241   -0.7633    6.9452 C   0  0  0  0  0  0  0  0  0  0  0  0
    2.7907   -0.8158    5.8953 C   0  0  0  0  0  0  0  0  0  0  0  0
    1.9398    1.2953    6.9257 C   0  0  0  0  0  0  0  0  0  0  0  0
   -1.7955    1.1863   -1.2170 H   0  0  0  0  0  0  0  0  0  0  0  0
   -0.7874    2.6532   -1.2319 H   0  0  0  0  0  0  0  0  0  0  0  0
   -0.2665    1.2062   -2.1281 H   0  0  0  0  0  0  0  0  0  0  0  0
   -0.0132   -0.0260    0.0087 H   0  0  0  0  0  0  0  0  0  0  0  0
    0.9949    1.4410   -0.0062 H   0  0  0  0  0  0  0  0  0  0  0  0
    1.4454    0.0548    1.5034 H   0  0  0  0  0  0  0  0  0  0  0  0
    2.4227   -0.5843    3.6679 H   0  0  0  0  0  0  0  0  0  0  0  0
   -0.6488    1.5487    5.7163 H   0  0  0  0  0  0  0  0  0  0  0  0
   -2.3928    2.4829    5.7116 H   0  0  0  0  0  0  0  0  0  0  0  0
   -3.8127    4.0353    0.3349 H   0  0  0  0  0  0  0  0  0  0  0  0
   -6.5497    7.4534    1.3921 H   0  0  0  0  0  0  0  0  0  0  0  0
   -6.8194    7.5760   -0.3631 H   0  0  0  0  0  0  0  0  0  0  0  0
   -7.6238    6.2938    0.5736 H   0  0  0  0  0  0  0  0  0  0  0  0
   -6.5341    4.6648   -0.9580 H   0  0  0  0  0  0  0  0  0  0  0  0
    0.2447   -1.6566    6.3865 H   0  0  0  0  0  0  0  0  0  0  0  0
    0.9601   -1.0541    7.9009 H   0  0  0  0  0  0  0  0  0  0  0  0
   -0.3615   -0.1526    7.1206 H   0  0  0  0  0  0  0  0  0  0  0  0
    3.5198   -0.2424    5.3227 H   0  0  0  0  0  0  0  0  0  0  0  0
    3.2267   -1.1065    6.8510 H   0  0  0  0  0  0  0  0  0  0  0  0
    2.5113   -1.7090    5.3366 H   0  0  0  0  0  0  0  0  0  0  0  0
    1.0541    1.9060    7.1011 H   0  0  0  0  0  0  0  0  0  0  0  0
    2.3758    1.0045    7.8814 H   0  0  0  0  0  0  0  0  0  0  0  0
    2.6689    1.8686    6.3532 H   0  0  0  0  0  0  0  0  0  0  0  0
   -7.8066    4.6126    1.6267 O   0  5  0  0  0  0  0  0  0  0  0  0
  1  2  1  0  0  0  0
  1 28  1  0  0  0  0
  1 29  1  0  0  0  0
  1 30  1  0  0  0  0
  2  3  1  0  0  0  0
  2 31  1  0  0  0  0
  2 32  1  0  0  0  0
  3  4  1  0  0  0  0
  4  9  2  0  0  0  0
  4  5  1  0  0  0  0
  5  6  2  0  0  0  0
  5 33  1  0  0  0  0
  6  7  1  0  0  0  0
  6 34  1  0  0  0  0
  7  8  2  0  0  0  0
  7 24  1  0  0  0  0
  8  9  1  0  0  0  0
  8 35  1  0  0  0  0
  9 10  1  0  0  0  0
 10 14  1  0  0  0  0
 10 11  2  0  0  0  0
 11 12  1  0  0  0  0
 11 36  1  0  0  0  0
 12 13  1  0  0  0  0
 13 14  2  0  0  0  0
 13 15  1  0  0  0  0
 15 16  1  0  0  0  0
 15 37  1  0  0  0  0
 16 17  1  0  0  0  0
 16 18  1  0  0  0  0
 16 22  1  0  0  0  0
 18 19  1  0  0  0  0
 18 20  1  0  0  0  0
 18 21  1  0  0  0  0
 20 38  1  0  0  0  0
 20 39  1  0  0  0  0
 20 40  1  0  0  0  0
 21 41  1  0  0  0  0
 22 23  2  0  0  0  0
 22 51  1  0  0  0  0
 24 25  1  0  0  0  0
 24 26  1  0  0  0  0
 24 27  1  0  0  0  0
 25 42  1  0  0  0  0
 25 43  1  0  0  0  0
 25 44  1  0  0  0  0
 26 45  1  0  0  0  0
 26 46  1  0  0  0  0
 26 47  1  0  0  0  0
 27 48  1  0  0  0  0
 27 49  1  0  0  0  0
 27 50  1  0  0  0  0
M  CHG  1  51  -1
M  END
$$$$
ZINC03856736
  -OEChem-08230709463D

 51 52  0     1  0  0  0  0  0999 V2000
   -0.7728    1.5634   -1.2313 C   0  0  0  0  0  0  0  0  0  0  0  0
   -0.0277    1.0640    0.0081 C   0  0  0  0  0  0  0  0  0  0  0  0
   -0.6916    1.5321    1.1838 O   0  0  0  0  0  0  0  0  0  0  0  0
   -0.1539    1.1748    2.3795 C   0  0  0  0  0  0  0  0  0  0  0  0
    0.9841    0.3862    2.4220 C   0  0  0  0  0  0  0  0  0  0  0  0
    1.5330    0.0272    3.6389 C   0  0  0  0  0  0  0  0  0  0  0  0
    0.9447    0.4434    4.8201 C   0  0  0  0  0  0  0  0  0  0  0  0
   -0.1925    1.2252    4.7924 C   0  0  0  0  0  0  0  0  0  0  0  0
   -0.7507    1.5970    3.5713 C   0  0  0  0  0  0  0  0  0  0  0  0
   -1.9728    2.4364    3.5358 C   0  0  0  0  0  0  0  0  0  0  0  0
   -2.6253    2.7546    4.6927 C   0  0  0  0  0  0  0  0  0  0  0  0
   -3.9691    3.7472    4.0560 S   0  0  0  0  0  0  0  0  0  0  0  0
   -3.5351    3.6316    2.3261 C   0  0  0  0  0  0  0  0  0  0  0  0
   -2.4483    2.8832    2.3755 N   0  0  0  0  0  0  0  0  0  0  0  0
   -4.1709    4.1813    1.2247 N   0  0  0  0  0  0  0  0  0  0  0  0
   -5.3797    4.9893    1.4044 C   0  0  2  0  0  0  0  0  0  0  0  0
   -5.3029    5.5568    2.3318 H   0  0  0  0  0  0  0  0  0  0  0  0
   -6.6020    4.0712    1.4679 C   0  0  2  0  0  0  0  0  0  0  0  0
   -7.5013    4.6724    1.6016 H   0  0  0  0  0  0  0  0  0  0  0  0
   -6.4540    3.1059    2.6457 C   0  0  0  0  0  0  0  0  0  0  0  0
   -6.7026    3.3273    0.2520 O   0  0  0  0  0  0  0  0  0  0  0  0
   -5.5253    5.9401    0.2443 C   0  0  0  0  0  0  0  0  0  0  0  0
   -4.7038    5.9426   -0.6416 O   0  0  0  0  0  0  0  0  0  0  0  0
    1.5475    0.0414    6.1415 C   0  0  0  0  0  0  0  0  0  0  0  0
    0.5241   -0.7634    6.9452 C   0  0  0  0  0  0  0  0  0  0  0  0
    2.7907   -0.8158    5.8953 C   0  0  0  0  0  0  0  0  0  0  0  0
    1.9397    1.2953    6.9257 C   0  0  0  0  0  0  0  0  0  0  0  0
   -1.7954    1.1864   -1.2170 H   0  0  0  0  0  0  0  0  0  0  0  0
   -0.7874    2.6533   -1.2319 H   0  0  0  0  0  0  0  0  0  0  0  0
   -0.2664    1.2063   -2.1281 H   0  0  0  0  0  0  0  0  0  0  0  0
   -0.0131   -0.0259    0.0087 H   0  0  0  0  0  0  0  0  0  0  0  0
    0.9949    1.4410   -0.0062 H   0  0  0  0  0  0  0  0  0  0  0  0
    1.4454    0.0548    1.5034 H   0  0  0  0  0  0  0  0  0  0  0  0
    2.4227   -0.5843    3.6679 H   0  0  0  0  0  0  0  0  0  0  0  0
   -0.6489    1.5486    5.7163 H   0  0  0  0  0  0  0  0  0  0  0  0
   -2.3929    2.4825    5.7117 H   0  0  0  0  0  0  0  0  0  0  0  0
   -3.8157    4.0313    0.3347 H   0  0  0  0  0  0  0  0  0  0  0  0
   -6.3772    3.6734    3.5732 H   0  0  0  0  0  0  0  0  0  0  0  0
   -7.3248    2.4519    2.6910 H   0  0  0  0  0  0  0  0  0  0  0  0
   -5.5547    2.5048    2.5121 H   0  0  0  0  0  0  0  0  0  0  0  0
   -5.9352    2.7684    0.0682 H   0  0  0  0  0  0  0  0  0  0  0  0
    0.2446   -1.6566    6.3865 H   0  0  0  0  0  0  0  0  0  0  0  0
    0.9600   -1.0541    7.9009 H   0  0  0  0  0  0  0  0  0  0  0  0
   -0.3616   -0.1527    7.1206 H   0  0  0  0  0  0  0  0  0  0  0  0
    3.5198   -0.2424    5.3228 H   0  0  0  0  0  0  0  0  0  0  0  0
    3.2266   -1.1066    6.8511 H   0  0  0  0  0  0  0  0  0  0  0  0
    2.5112   -1.7090    5.3366 H   0  0  0  0  0  0  0  0  0  0  0  0
    1.0541    1.9060    7.1011 H   0  0  0  0  0  0  0  0  0  0  0  0
    2.3757    1.0045    7.8815 H   0  0  0  0  0  0  0  0  0  0  0  0
    2.6688    1.8686    6.3532 H   0  0  0  0  0  0  0  0  0  0  0  0
   -6.5678    6.7843    0.1952 O   0  5  0  0  0  0  0  0  0  0  0  0
  1  2  1  0  0  0  0
  1 28  1  0  0  0  0
  1 29  1  0  0  0  0
  1 30  1  0  0  0  0
  2  3  1  0  0  0  0
  2 31  1  0  0  0  0
  2 32  1  0  0  0  0
  3  4  1  0  0  0  0
  4  9  2  0  0  0  0
  4  5  1  0  0  0  0
  5  6  2  0  0  0  0
  5 33  1  0  0  0  0
  6  7  1  0  0  0  0
  6 34  1  0  0  0  0
  7  8  2  0  0  0  0
  7 24  1  0  0  0  0
  8  9  1  0  0  0  0
  8 35  1  0  0  0  0
  9 10  1  0  0  0  0
 10 14  1  0  0  0  0
 10 11  2  0  0  0  0
 11 12  1  0  0  0  0
 11 36  1  0  0  0  0
 12 13  1  0  0  0  0
 13 14  2  0  0  0  0
 13 15  1  0  0  0  0
 15 16  1  0  0  0  0
 15 37  1  0  0  0  0
 16 17  1  0  0  0  0
 16 18  1  0  0  0  0
 16 22  1  0  0  0  0
 18 19  1  0  0  0  0
 18 20  1  0  0  0  0
 18 21  1  0  0  0  0
 20 38  1  0  0  0  0
 20 39  1  0  0  0  0
 20 40  1  0  0  0  0
 21 41  1  0  0  0  0
 22 23  2  0  0  0  0
 22 51  1  0  0  0  0
 24 25  1  0  0  0  0
 24 26  1  0  0  0  0
 24 27  1  0  0  0  0
 25 42  1  0  0  0  0
 25 43  1  0  0  0  0
 25 44  1  0  0  0  0
 26 45  1  0  0  0  0
 26 46  1  0  0  0  0
 26 47  1  0  0  0  0
 27 48  1  0  0  0  0
 27 49  1  0  0  0  0
 27 50  1  0  0  0  0
M  CHG  1  51  -1
M  END
$$$$
ZINC03856754
  -OEChem-08230709463D

 53 54  0     1  0  0  0  0  0999 V2000
    0.4089   -0.4128    0.4760 C   0  0  0  0  0  0  0  0  0  0  0  0
    0.0322    1.0163    0.0800 C   0  0  0  0  0  0  0  0  0  0  0  0
    1.3048    1.8344   -0.1486 C   0  0  0  0  0  0  0  0  0  0  0  0
   -0.7908    1.6557    1.2001 C   0  0  0  0  0  0  0  0  0  0  0  0
   -2.1292    0.9258    1.3299 C   0  0  1  0  0  0  0  0  0  0  0  0
   -1.9493   -0.1375    1.4883 H   0  0  0  0  0  0  0  0  0  0  0  0
   -2.8951    1.4855    2.5009 C   0  0  0  0  0  0  0  0  0  0  0  0
   -3.9801    1.9883    2.3284 O   0  0  0  0  0  0  0  0  0  0  0  0
   -2.9080    1.1120    0.1031 N   0  0  0  0  0  0  0  0  0  0  0  0
   -3.8718    0.1827   -0.2533 C   0  0  0  0  0  0  0  0  0  0  0  0
   -4.6734    0.1716   -1.3025 N   0  0  0  0  0  0  0  0  0  0  0  0
   -5.5469   -0.8150   -1.4906 C   0  0  0  0  0  0  0  0  0  0  0  0
   -5.6207   -1.8261   -0.5754 C   0  0  0  0  0  0  0  0  0  0  0  0
   -4.3646   -1.3144    0.5893 S   0  0  0  0  0  0  0  0  0  0  0  0
   -6.4347   -0.8136   -2.6788 C   0  0  0  0  0  0  0  0  0  0  0  0
   -7.4214   -1.7891   -2.8149 C   0  0  0  0  0  0  0  0  0  0  0  0
   -8.2455   -1.7848   -3.9206 C   0  0  0  0  0  0  0  0  0  0  0  0
   -8.0935   -0.8103   -4.8976 C   0  0  0  0  0  0  0  0  0  0  0  0
   -7.1123    0.1623   -4.7652 C   0  0  0  0  0  0  0  0  0  0  0  0
   -6.2881    0.1665   -3.6589 C   0  0  0  0  0  0  0  0  0  0  0  0
   -6.9508    1.2182   -5.8282 C   0  0  0  0  0  0  0  0  0  0  0  0
   -5.8081    2.1596   -5.4424 C   0  0  0  0  0  0  0  0  0  0  0  0
   -6.6310    0.5496   -7.1667 C   0  0  0  0  0  0  0  0  0  0  0  0
   -8.2493    2.0174   -5.9547 C   0  0  0  0  0  0  0  0  0  0  0  0
   -8.9070   -0.8089   -5.9864 O   0  0  0  0  0  0  0  0  0  0  0  0
   -9.8950   -1.8388   -6.0593 C   0  0  0  0  0  0  0  0  0  0  0  0
    0.9975   -0.3925    1.3933 H   0  0  0  0  0  0  0  0  0  0  0  0
   -0.4976   -0.9956    0.6389 H   0  0  0  0  0  0  0  0  0  0  0  0
    0.9953   -0.8683   -0.3219 H   0  0  0  0  0  0  0  0  0  0  0  0
   -0.5563    0.9960   -0.8372 H   0  0  0  0  0  0  0  0  0  0  0  0
    1.8933    1.3763   -0.9435 H   0  0  0  0  0  0  0  0  0  0  0  0
    1.0364    2.8512   -0.4351 H   0  0  0  0  0  0  0  0  0  0  0  0
    1.8911    1.8585    0.7699 H   0  0  0  0  0  0  0  0  0  0  0  0
   -0.2441    1.5821    2.1402 H   0  0  0  0  0  0  0  0  0  0  0  0
   -0.9704    2.7049    0.9655 H   0  0  0  0  0  0  0  0  0  0  0  0
   -2.7489    1.8859   -0.4596 H   0  0  0  0  0  0  0  0  0  0  0  0
   -6.2617   -2.6951   -0.5595 H   0  0  0  0  0  0  0  0  0  0  0  0
   -7.5404   -2.5473   -2.0549 H   0  0  0  0  0  0  0  0  0  0  0  0
   -9.0103   -2.5400   -4.0264 H   0  0  0  0  0  0  0  0  0  0  0  0
   -5.5277    0.9262   -3.5542 H   0  0  0  0  0  0  0  0  0  0  0  0
   -4.8829    1.5902   -5.3523 H   0  0  0  0  0  0  0  0  0  0  0  0
   -5.6912    2.9233   -6.2113 H   0  0  0  0  0  0  0  0  0  0  0  0
   -6.0359    2.6359   -4.4888 H   0  0  0  0  0  0  0  0  0  0  0  0
   -7.4451   -0.1211   -7.4415 H   0  0  0  0  0  0  0  0  0  0  0  0
   -6.5141    1.3134   -7.9356 H   0  0  0  0  0  0  0  0  0  0  0  0
   -5.7059   -0.0197   -7.0766 H   0  0  0  0  0  0  0  0  0  0  0  0
   -8.4772    2.4937   -5.0011 H   0  0  0  0  0  0  0  0  0  0  0  0
   -8.1325    2.7811   -6.7235 H   0  0  0  0  0  0  0  0  0  0  0  0
   -9.0634    1.3467   -6.2295 H   0  0  0  0  0  0  0  0  0  0  0  0
  -10.4745   -1.7222   -6.9751 H   0  0  0  0  0  0  0  0  0  0  0  0
   -9.4053   -2.8126   -6.0609 H   0  0  0  0  0  0  0  0  0  0  0  0
  -10.5587   -1.7672   -5.1977 H   0  0  0  0  0  0  0  0  0  0  0  0
   -2.3719    1.4255    3.7356 O   0  5  0  0  0  0  0  0  0  0  0  0
  1  2  1  0  0  0  0
  1 27  1  0  0  0  0
  1 28  1  0  0  0  0
  1 29  1  0  0  0  0
  2  3  1  0  0  0  0
  2  4  1  0  0  0  0
  2 30  1  0  0  0  0
  3 31  1  0  0  0  0
  3 32  1  0  0  0  0
  3 33  1  0  0  0  0
  4  5  1  0  0  0  0
  4 34  1  0  0  0  0
  4 35  1  0  0  0  0
  5  6  1  0  0  0  0
  5  7  1  0  0  0  0
  5  9  1  0  0  0  0
  7  8  2  0  0  0  0
  7 53  1  0  0  0  0
  9 10  1  0  0  0  0
  9 36  1  0  0  0  0
 10 14  1  0  0  0  0
 10 11  2  0  0  0  0
 11 12  1  0  0  0  0
 12 13  2  0  0  0  0
 12 15  1  0  0  0  0
 13 14  1  0  0  0  0
 13 37  1  0  0  0  0
 15 20  2  0  0  0  0
 15 16  1  0  0  0  0
 16 17  2  0  0  0  0
 16 38  1  0  0  0  0
 17 18  1  0  0  0  0
 17 39  1  0  0  0  0
 18 19  2  0  0  0  0
 18 25  1  0  0  0  0
 19 20  1  0  0  0  0
 19 21  1  0  0  0  0
 20 40  1  0  0  0  0
 21 22  1  0  0  0  0
 21 23  1  0  0  0  0
 21 24  1  0  0  0  0
 22 41  1  0  0  0  0
 22 42  1  0  0  0  0
 22 43  1  0  0  0  0
 23 44  1  0  0  0  0
 23 45  1  0  0  0  0
 23 46  1  0  0  0  0
 24 47  1  0  0  0  0
 24 48  1  0  0  0  0
 24 49  1  0  0  0  0
 25 26  1  0  0  0  0
 26 50  1  0  0  0  0
 26 51  1  0  0  0  0
 26 52  1  0  0  0  0
M  CHG  1  53  -1
M  END
$$$$
ZINC03856755
  -OEChem-08230709463D

 53 54  0     1  0  0  0  0  0999 V2000
    1.5263    2.2910   -2.4178 C   0  0  0  0  0  0  0  0  0  0  0  0
    2.1337    1.4969   -1.2596 C   0  0  0  0  0  0  0  0  0  0  0  0
    3.6272    1.8118   -1.1532 C   0  0  0  0  0  0  0  0  0  0  0  0
    1.4365    1.8850    0.0458 C   0  0  0  0  0  0  0  0  0  0  0  0
   -0.0257    1.4373   -0.0043 C   0  0  2  0  0  0  0  0  0  0  0  0
   -0.5040    1.8568   -0.8894 H   0  0  0  0  0  0  0  0  0  0  0  0
   -0.7417    1.9208    1.2305 C   0  0  0  0  0  0  0  0  0  0  0  0
   -1.2508    1.1253    1.9840 O   0  0  0  0  0  0  0  0  0  0  0  0
   -0.0868   -0.0252   -0.0631 N   0  0  0  0  0  0  0  0  0  0  0  0
   -1.1907   -0.6506   -0.6198 C   0  0  0  0  0  0  0  0  0  0  0  0
   -1.4323   -1.9400   -0.7703 N   0  0  0  0  0  0  0  0  0  0  0  0
   -2.5617   -2.3676   -1.3303 C   0  0  0  0  0  0  0  0  0  0  0  0
   -3.4794   -1.4546   -1.7655 C   0  0  0  0  0  0  0  0  0  0  0  0
   -2.6610    0.0745   -1.3315 S   0  0  0  0  0  0  0  0  0  0  0  0
   -2.8183   -3.8203   -1.4848 C   0  0  0  0  0  0  0  0  0  0  0  0
   -3.9504   -4.2608   -2.1691 C   0  0  0  0  0  0  0  0  0  0  0  0
   -4.1859   -5.6121   -2.3115 C   0  0  0  0  0  0  0  0  0  0  0  0
   -3.2971   -6.5335   -1.7744 C   0  0  0  0  0  0  0  0  0  0  0  0
   -2.1693   -6.0983   -1.0926 C   0  0  0  0  0  0  0  0  0  0  0  0
   -1.9253   -4.7479   -0.9513 C   0  0  0  0  0  0  0  0  0  0  0  0
   -1.2073   -7.1019   -0.5111 C   0  0  0  0  0  0  0  0  0  0  0  0
   -0.0595   -6.3656    0.1826 C   0  0  0  0  0  0  0  0  0  0  0  0
   -1.9390   -7.9797    0.5063 C   0  0  0  0  0  0  0  0  0  0  0  0
   -0.6465   -7.9796   -1.6320 C   0  0  0  0  0  0  0  0  0  0  0  0
   -3.5323   -7.8646   -1.9160 O   0  0  0  0  0  0  0  0  0  0  0  0
   -4.7119   -8.2428   -2.6285 C   0  0  0  0  0  0  0  0  0  0  0  0
    1.6609    3.3575   -2.2372 H   0  0  0  0  0  0  0  0  0  0  0  0
    2.0231    2.0145   -3.3478 H   0  0  0  0  0  0  0  0  0  0  0  0
    0.4624    2.0667   -2.4936 H   0  0  0  0  0  0  0  0  0  0  0  0
    1.9992    0.4305   -1.4402 H   0  0  0  0  0  0  0  0  0  0  0  0
    4.0612    1.2412   -0.3322 H   0  0  0  0  0  0  0  0  0  0  0  0
    4.1228    1.5413   -2.0856 H   0  0  0  0  0  0  0  0  0  0  0  0
    3.7615    2.8772   -0.9662 H   0  0  0  0  0  0  0  0  0  0  0  0
    1.4811    2.9666    0.1740 H   0  0  0  0  0  0  0  0  0  0  0  0
    1.9368    1.3990    0.8834 H   0  0  0  0  0  0  0  0  0  0  0  0
    0.6455   -0.5558    0.2877 H   0  0  0  0  0  0  0  0  0  0  0  0
   -4.4360   -1.6128   -2.2414 H   0  0  0  0  0  0  0  0  0  0  0  0
   -4.6419   -3.5445   -2.5875 H   0  0  0  0  0  0  0  0  0  0  0  0
   -5.0624   -5.9540   -2.8418 H   0  0  0  0  0  0  0  0  0  0  0  0
   -1.0451   -4.4098   -0.4246 H   0  0  0  0  0  0  0  0  0  0  0  0
   -0.4590   -5.7403    0.9811 H   0  0  0  0  0  0  0  0  0  0  0  0
    0.6363   -7.0915    0.6032 H   0  0  0  0  0  0  0  0  0  0  0  0
    0.4618   -5.7403   -0.5422 H   0  0  0  0  0  0  0  0  0  0  0  0
   -2.7566   -8.5043    0.0120 H   0  0  0  0  0  0  0  0  0  0  0  0
   -1.2431   -8.7056    0.9268 H   0  0  0  0  0  0  0  0  0  0  0  0
   -2.3384   -7.3544    1.3047 H   0  0  0  0  0  0  0  0  0  0  0  0
   -0.1252   -7.3543   -2.3568 H   0  0  0  0  0  0  0  0  0  0  0  0
    0.0493   -8.7055   -1.2114 H   0  0  0  0  0  0  0  0  0  0  0  0
   -1.4642   -8.5042   -2.1262 H   0  0  0  0  0  0  0  0  0  0  0  0
   -5.5883   -7.8433   -2.1183 H   0  0  0  0  0  0  0  0  0  0  0  0
   -4.6679   -7.8437   -3.6418 H   0  0  0  0  0  0  0  0  0  0  0  0
   -4.7791   -9.3300   -2.6688 H   0  0  0  0  0  0  0  0  0  0  0  0
   -0.8139    3.2351    1.4931 O   0  5  0  0  0  0  0  0  0  0  0  0
  1  2  1  0  0  0  0
  1 27  1  0  0  0  0
  1 28  1  0  0  0  0
  1 29  1  0  0  0  0
  2  3  1  0  0  0  0
  2  4  1  0  0  0  0
  2 30  1  0  0  0  0
  3 31  1  0  0  0  0
  3 32  1  0  0  0  0
  3 33  1  0  0  0  0
  4  5  1  0  0  0  0
  4 34  1  0  0  0  0
  4 35  1  0  0  0  0
  5  6  1  0  0  0  0
  5  7  1  0  0  0  0
  5  9  1  0  0  0  0
  7  8  2  0  0  0  0
  7 53  1  0  0  0  0
  9 10  1  0  0  0  0
  9 36  1  0  0  0  0
 10 14  1  0  0  0  0
 10 11  2  0  0  0  0
 11 12  1  0  0  0  0
 12 13  2  0  0  0  0
 12 15  1  0  0  0  0
 13 14  1  0  0  0  0
 13 37  1  0  0  0  0
 15 20  2  0  0  0  0
 15 16  1  0  0  0  0
 16 17  2  0  0  0  0
 16 38  1  0  0  0  0
 17 18  1  0  0  0  0
 17 39  1  0  0  0  0
 18 19  2  0  0  0  0
 18 25  1  0  0  0  0
 19 20  1  0  0  0  0
 19 21  1  0  0  0  0
 20 40  1  0  0  0  0
 21 22  1  0  0  0  0
 21 23  1  0  0  0  0
 21 24  1  0  0  0  0
 22 41  1  0  0  0  0
 22 42  1  0  0  0  0
 22 43  1  0  0  0  0
 23 44  1  0  0  0  0
 23 45  1  0  0  0  0
 23 46  1  0  0  0  0
 24 47  1  0  0  0  0
 24 48  1  0  0  0  0
 24 49  1  0  0  0  0
 25 26  1  0  0  0  0
 26 50  1  0  0  0  0
 26 51  1  0  0  0  0
 26 52  1  0  0  0  0
M  CHG  1  53  -1
M  END
$$$$
ZINC03856756
  -OEChem-08230709463D

 53 54  0     1  0  0  0  0  0999 V2000
   -0.4491    0.1797    3.1005 C   0  0  0  0  0  0  0  0  0  0  0  0
   -0.2731    1.6686    2.7951 C   0  0  0  0  0  0  0  0  0  0  0  0
   -1.2455    2.0806    1.6881 C   0  0  1  0  0  0  0  0  0  0  0  0
   -1.1092    1.4302    0.8241 H   0  0  0  0  0  0  0  0  0  0  0  0
   -2.6823    1.9557    2.1989 C   0  0  0  0  0  0  0  0  0  0  0  0
   -0.9725    3.5306    1.2831 C   0  0  1  0  0  0  0  0  0  0  0  0
    0.0694    3.6330    0.9795 H   0  0  0  0  0  0  0  0  0  0  0  0
   -1.8702    3.9085    0.1332 C   0  0  0  0  0  0  0  0  0  0  0  0
   -2.8899    4.5229    0.3395 O   0  0  0  0  0  0  0  0  0  0  0  0
   -1.2386    4.4139    2.4211 N   0  0  0  0  0  0  0  0  0  0  0  0
   -0.6070    5.6441    2.5057 C   0  0  0  0  0  0  0  0  0  0  0  0
   -0.7142    6.5756    3.4355 N   0  0  0  0  0  0  0  0  0  0  0  0
   -0.0204    7.7088    3.3572 C   0  0  0  0  0  0  0  0  0  0  0  0
    0.8066    7.9140    2.2899 C   0  0  0  0  0  0  0  0  0  0  0  0
    0.5626    6.3937    1.3814 S   0  0  0  0  0  0  0  0  0  0  0  0
   -0.1489    8.7408    4.4148 C   0  0  0  0  0  0  0  0  0  0  0  0
    0.4936    9.9700    4.2733 C   0  0  0  0  0  0  0  0  0  0  0  0
    0.3721   10.9274    5.2585 C   0  0  0  0  0  0  0  0  0  0  0  0
   -0.3894   10.6684    6.3900 C   0  0  0  0  0  0  0  0  0  0  0  0
   -1.0303    9.4458    6.5339 C   0  0  0  0  0  0  0  0  0  0  0  0
   -0.9170    8.4859    5.5496 C   0  0  0  0  0  0  0  0  0  0  0  0
   -1.8555    9.1688    7.7641 C   0  0  0  0  0  0  0  0  0  0  0  0
   -2.4482    7.7611    7.6742 C   0  0  0  0  0  0  0  0  0  0  0  0
   -0.9685    9.2703    9.0067 C   0  0  0  0  0  0  0  0  0  0  0  0
   -2.9874   10.1936    7.8604 C   0  0  0  0  0  0  0  0  0  0  0  0
   -0.5072   11.6140    7.3591 O   0  0  0  0  0  0  0  0  0  0  0  0
    0.1790   12.8494    7.1469 C   0  0  0  0  0  0  0  0  0  0  0  0
   -1.4721   -0.0055    3.4280 H   0  0  0  0  0  0  0  0  0  0  0  0
   -0.2443   -0.4022    2.2018 H   0  0  0  0  0  0  0  0  0  0  0  0
    0.2437   -0.1138    3.8891 H   0  0  0  0  0  0  0  0  0  0  0  0
   -0.4779    2.2505    3.6938 H   0  0  0  0  0  0  0  0  0  0  0  0
    0.7499    1.8538    2.4676 H   0  0  0  0  0  0  0  0  0  0  0  0
   -3.3751    2.2493    1.4103 H   0  0  0  0  0  0  0  0  0  0  0  0
   -2.8768    0.9228    2.4875 H   0  0  0  0  0  0  0  0  0  0  0  0
   -2.8186    2.6061    3.0629 H   0  0  0  0  0  0  0  0  0  0  0  0
   -1.8571    4.1374    3.1154 H   0  0  0  0  0  0  0  0  0  0  0  0
    1.4352    8.7612    2.0586 H   0  0  0  0  0  0  0  0  0  0  0  0
    1.0855   10.1723    3.3929 H   0  0  0  0  0  0  0  0  0  0  0  0
    0.8696   11.8798    5.1494 H   0  0  0  0  0  0  0  0  0  0  0  0
   -1.4196    7.5364    5.6601 H   0  0  0  0  0  0  0  0  0  0  0  0
   -1.6418    7.0310    7.6056 H   0  0  0  0  0  0  0  0  0  0  0  0
   -3.0451    7.5607    8.5640 H   0  0  0  0  0  0  0  0  0  0  0  0
   -3.0801    7.6888    6.7890 H   0  0  0  0  0  0  0  0  0  0  0  0
   -0.5463   10.2731    9.0707 H   0  0  0  0  0  0  0  0  0  0  0  0
   -1.5654    9.0698    9.8964 H   0  0  0  0  0  0  0  0  0  0  0  0
   -0.1621    8.5401    8.9381 H   0  0  0  0  0  0  0  0  0  0  0  0
   -3.6193   10.1213    6.9752 H   0  0  0  0  0  0  0  0  0  0  0  0
   -3.5843    9.9932    8.7502 H   0  0  0  0  0  0  0  0  0  0  0  0
   -2.5651   11.1964    7.9244 H   0  0  0  0  0  0  0  0  0  0  0  0
   -0.1899   13.3178    6.2344 H   0  0  0  0  0  0  0  0  0  0  0  0
    0.0020   13.5133    7.9931 H   0  0  0  0  0  0  0  0  0  0  0  0
    1.2480   12.6596    7.0514 H   0  0  0  0  0  0  0  0  0  0  0  0
   -1.5370    3.5624   -1.1202 O   0  5  0  0  0  0  0  0  0  0  0  0
  1  2  1  0  0  0  0
  1 28  1  0  0  0  0
  1 29  1  0  0  0  0
  1 30  1  0  0  0  0
  2  3  1  0  0  0  0
  2 31  1  0  0  0  0
  2 32  1  0  0  0  0
  3  4  1  0  0  0  0
  3  5  1  0  0  0  0
  3  6  1  0  0  0  0
  5 33  1  0  0  0  0
  5 34  1  0  0  0  0
  5 35  1  0  0  0  0
  6  7  1  0  0  0  0
  6  8  1  0  0  0  0
  6 10  1  0  0  0  0
  8  9  2  0  0  0  0
  8 53  1  0  0  0  0
 10 11  1  0  0  0  0
 10 36  1  0  0  0  0
 11 15  1  0  0  0  0
 11 12  2  0  0  0  0
 12 13  1  0  0  0  0
 13 14  2  0  0  0  0
 13 16  1  0  0  0  0
 14 15  1  0  0  0  0
 14 37  1  0  0  0  0
 16 21  2  0  0  0  0
 16 17  1  0  0  0  0
 17 18  2  0  0  0  0
 17 38  1  0  0  0  0
 18 19  1  0  0  0  0
 18 39  1  0  0  0  0
 19 20  2  0  0  0  0
 19 26  1  0  0  0  0
 20 21  1  0  0  0  0
 20 22  1  0  0  0  0
 21 40  1  0  0  0  0
 22 23  1  0  0  0  0
 22 24  1  0  0  0  0
 22 25  1  0  0  0  0
 23 41  1  0  0  0  0
 23 42  1  0  0  0  0
 23 43  1  0  0  0  0
 24 44  1  0  0  0  0
 24 45  1  0  0  0  0
 24 46  1  0  0  0  0
 25 47  1  0  0  0  0
 25 48  1  0  0  0  0
 25 49  1  0  0  0  0
 26 27  1  0  0  0  0
 27 50  1  0  0  0  0
 27 51  1  0  0  0  0
 27 52  1  0  0  0  0
M  CHG  1  53  -1
M  END
$$$$
ZINC03856757
  -OEChem-08230709463D

 53 54  0     1  0  0  0  0  0999 V2000
   -1.7003    3.9407   -2.3336 C   0  0  0  0  0  0  0  0  0  0  0  0
   -0.9660    3.2909   -1.1591 C   0  0  0  0  0  0  0  0  0  0  0  0
    0.5222    3.6385   -1.2327 C   0  0  2  0  0  0  0  0  0  0  0  0
    0.6407    4.7213   -1.2739 H   0  0  0  0  0  0  0  0  0  0  0  0
    1.1311    3.0106   -2.4880 C   0  0  0  0  0  0  0  0  0  0  0  0
    1.2350    3.0943    0.0069 C   0  0  1  0  0  0  0  0  0  0  0  0
    0.7441    3.4725    0.9036 H   0  0  0  0  0  0  0  0  0  0  0  0
    1.1765    1.5884   -0.0006 C   0  0  0  0  0  0  0  0  0  0  0  0
    2.1986    0.9442   -0.0139 O   0  0  0  0  0  0  0  0  0  0  0  0
    2.6340    3.5287   -0.0041 N   0  0  0  0  0  0  0  0  0  0  0  0
    3.3380    3.6279    1.1850 C   0  0  0  0  0  0  0  0  0  0  0  0
    4.5918    3.9905    1.3854 N   0  0  0  0  0  0  0  0  0  0  0  0
    5.1081    4.0330    2.6116 C   0  0  0  0  0  0  0  0  0  0  0  0
    4.3287    3.6846    3.6776 C   0  0  0  0  0  0  0  0  0  0  0  0
    2.7918    3.2913    2.8531 S   0  0  0  0  0  0  0  0  0  0  0  0
    6.5168    4.4492    2.8175 C   0  0  0  0  0  0  0  0  0  0  0  0
    7.0847    4.3874    4.0892 C   0  0  0  0  0  0  0  0  0  0  0  0
    8.3949    4.7746    4.2773 C   0  0  0  0  0  0  0  0  0  0  0  0
    9.1482    5.2257    3.2019 C   0  0  0  0  0  0  0  0  0  0  0  0
    8.5858    5.2884    1.9346 C   0  0  0  0  0  0  0  0  0  0  0  0
    7.2773    4.8975    1.7389 C   0  0  0  0  0  0  0  0  0  0  0  0
    9.4071    5.7787    0.7701 C   0  0  0  0  0  0  0  0  0  0  0  0
    8.5571    5.7493   -0.5017 C   0  0  0  0  0  0  0  0  0  0  0  0
    9.8711    7.2113    1.0405 C   0  0  0  0  0  0  0  0  0  0  0  0
   10.6270    4.8731    0.5892 C   0  0  0  0  0  0  0  0  0  0  0  0
   10.4390    5.6070    3.3906 O   0  0  0  0  0  0  0  0  0  0  0  0
   10.9542    5.5174    4.7205 C   0  0  0  0  0  0  0  0  0  0  0  0
   -1.5771    5.0226   -2.2853 H   0  0  0  0  0  0  0  0  0  0  0  0
   -1.2863    3.5694   -3.2711 H   0  0  0  0  0  0  0  0  0  0  0  0
   -2.7604    3.6930   -2.2812 H   0  0  0  0  0  0  0  0  0  0  0  0
   -1.0892    2.2089   -1.2074 H   0  0  0  0  0  0  0  0  0  0  0  0
   -1.3799    3.6622   -0.2216 H   0  0  0  0  0  0  0  0  0  0  0  0
    0.6233    3.3984   -3.3711 H   0  0  0  0  0  0  0  0  0  0  0  0
    2.1913    3.2583   -2.5405 H   0  0  0  0  0  0  0  0  0  0  0  0
    1.0125    1.9279   -2.4468 H   0  0  0  0  0  0  0  0  0  0  0  0
    3.0675    3.7470   -0.8440 H   0  0  0  0  0  0  0  0  0  0  0  0
    4.5736    3.6544    4.7290 H   0  0  0  0  0  0  0  0  0  0  0  0
    6.4994    4.0363    4.9262 H   0  0  0  0  0  0  0  0  0  0  0  0
    8.8355    4.7266    5.2622 H   0  0  0  0  0  0  0  0  0  0  0  0
    6.8416    4.9424    0.7518 H   0  0  0  0  0  0  0  0  0  0  0  0
    7.6880    6.3945   -0.3729 H   0  0  0  0  0  0  0  0  0  0  0  0
    9.1511    6.1039   -1.3440 H   0  0  0  0  0  0  0  0  0  0  0  0
    8.2265    4.7287   -0.6943 H   0  0  0  0  0  0  0  0  0  0  0  0
   10.4766    7.2322    1.9465 H   0  0  0  0  0  0  0  0  0  0  0  0
   10.4651    7.5659    0.1982 H   0  0  0  0  0  0  0  0  0  0  0  0
    9.0020    7.8565    1.1693 H   0  0  0  0  0  0  0  0  0  0  0  0
   10.2964    3.8524    0.3966 H   0  0  0  0  0  0  0  0  0  0  0  0
   11.2210    5.2276   -0.2531 H   0  0  0  0  0  0  0  0  0  0  0  0
   11.2325    4.8940    1.4953 H   0  0  0  0  0  0  0  0  0  0  0  0
   10.9013    4.4836    5.0617 H   0  0  0  0  0  0  0  0  0  0  0  0
   11.9918    5.8511    4.7314 H   0  0  0  0  0  0  0  0  0  0  0  0
   10.3623    6.1493    5.3827 H   0  0  0  0  0  0  0  0  0  0  0  0
   -0.0110    0.9628    0.0073 O   0  5  0  0  0  0  0  0  0  0  0  0
  1  2  1  0  0  0  0
  1 28  1  0  0  0  0
  1 29  1  0  0  0  0
  1 30  1  0  0  0  0
  2  3  1  0  0  0  0
  2 31  1  0  0  0  0
  2 32  1  0  0  0  0
  3  4  1  0  0  0  0
  3  5  1  0  0  0  0
  3  6  1  0  0  0  0
  5 33  1  0  0  0  0
  5 34  1  0  0  0  0
  5 35  1  0  0  0  0
  6  7  1  0  0  0  0
  6  8  1  0  0  0  0
  6 10  1  0  0  0  0
  8  9  2  0  0  0  0
  8 53  1  0  0  0  0
 10 11  1  0  0  0  0
 10 36  1  0  0  0  0
 11 15  1  0  0  0  0
 11 12  2  0  0  0  0
 12 13  1  0  0  0  0
 13 14  2  0  0  0  0
 13 16  1  0  0  0  0
 14 15  1  0  0  0  0
 14 37  1  0  0  0  0
 16 21  2  0  0  0  0
 16 17  1  0  0  0  0
 17 18  2  0  0  0  0
 17 38  1  0  0  0  0
 18 19  1  0  0  0  0
 18 39  1  0  0  0  0
 19 20  2  0  0  0  0
 19 26  1  0  0  0  0
 20 21  1  0  0  0  0
 20 22  1  0  0  0  0
 21 40  1  0  0  0  0
 22 23  1  0  0  0  0
 22 24  1  0  0  0  0
 22 25  1  0  0  0  0
 23 41  1  0  0  0  0
 23 42  1  0  0  0  0
 23 43  1  0  0  0  0
 24 44  1  0  0  0  0
 24 45  1  0  0  0  0
 24 46  1  0  0  0  0
 25 47  1  0  0  0  0
 25 48  1  0  0  0  0
 25 49  1  0  0  0  0
 26 27  1  0  0  0  0
 27 50  1  0  0  0  0
 27 51  1  0  0  0  0
 27 52  1  0  0  0  0
M  CHG  1  53  -1
M  END
$$$$
ZINC03856758
  -OEChem-08230709463D

 53 54  0     1  0  0  0  0  0999 V2000
    7.7949    9.3260    1.6677 C   0  0  0  0  0  0  0  0  0  0  0  0
    7.7536    8.0390    0.8414 C   0  0  0  0  0  0  0  0  0  0  0  0
    6.3383    7.4585    0.8719 C   0  0  1  0  0  0  0  0  0  0  0  0
    6.0243    7.3210    1.9065 H   0  0  0  0  0  0  0  0  0  0  0  0
    5.3773    8.4207    0.1708 C   0  0  0  0  0  0  0  0  0  0  0  0
    6.3249    6.1090    0.1512 C   0  0  2  0  0  0  0  0  0  0  0  0
    7.0096    5.4235    0.6507 H   0  0  0  0  0  0  0  0  0  0  0  0
    6.7592    6.2991   -1.2793 C   0  0  0  0  0  0  0  0  0  0  0  0
    6.0132    6.0010   -2.1818 O   0  0  0  0  0  0  0  0  0  0  0  0
    4.9698    5.5532    0.1804 N   0  0  0  0  0  0  0  0  0  0  0  0
    4.7801    4.1844    0.0803 C   0  0  0  0  0  0  0  0  0  0  0  0
    3.6537    3.4953    0.0806 N   0  0  0  0  0  0  0  0  0  0  0  0
    3.6592    2.1681   -0.0217 C   0  0  0  0  0  0  0  0  0  0  0  0
    4.8508    1.5116   -0.1402 C   0  0  0  0  0  0  0  0  0  0  0  0
    5.9947    2.8847   -0.0916 S   0  0  0  0  0  0  0  0  0  0  0  0
    2.3839    1.4107   -0.0131 C   0  0  0  0  0  0  0  0  0  0  0  0
    2.3994    0.0166   -0.0212 C   0  0  0  0  0  0  0  0  0  0  0  0
    1.2119   -0.6848   -0.0136 C   0  0  0  0  0  0  0  0  0  0  0  0
    0.0021   -0.0041    0.0020 C   0  0  0  0  0  0  0  0  0  0  0  0
   -0.0167    1.3836    0.0096 C   0  0  0  0  0  0  0  0  0  0  0  0
    1.1676    2.0911    0.0021 C   0  0  0  0  0  0  0  0  0  0  0  0
   -1.3324    2.1185    0.0199 C   0  0  0  0  0  0  0  0  0  0  0  0
   -1.0742    3.6266    0.0268 C   0  0  0  0  0  0  0  0  0  0  0  0
   -2.1353    1.7443   -1.2277 C   0  0  0  0  0  0  0  0  0  0  0  0
   -2.1235    1.7307    1.2708 C   0  0  0  0  0  0  0  0  0  0  0  0
   -1.1665   -0.6982    0.0094 O   0  0  0  0  0  0  0  0  0  0  0  0
   -1.0741   -2.1241    0.0009 C   0  0  0  0  0  0  0  0  0  0  0  0
    7.0963   10.0498    1.2480 H   0  0  0  0  0  0  0  0  0  0  0  0
    7.5147    9.1056    2.6977 H   0  0  0  0  0  0  0  0  0  0  0  0
    8.8032    9.7395    1.6459 H   0  0  0  0  0  0  0  0  0  0  0  0
    8.4523    7.3152    1.2610 H   0  0  0  0  0  0  0  0  0  0  0  0
    8.0338    8.2594   -0.1887 H   0  0  0  0  0  0  0  0  0  0  0  0
    5.3868    9.3821    0.6842 H   0  0  0  0  0  0  0  0  0  0  0  0
    5.6914    8.5582   -0.8639 H   0  0  0  0  0  0  0  0  0  0  0  0
    4.3690    8.0072    0.1925 H   0  0  0  0  0  0  0  0  0  0  0  0
    4.2053    6.1435    0.2698 H   0  0  0  0  0  0  0  0  0  0  0  0
    5.0479    0.4541   -0.2364 H   0  0  0  0  0  0  0  0  0  0  0  0
    3.3402   -0.5135   -0.0337 H   0  0  0  0  0  0  0  0  0  0  0  0
    1.2233   -1.7647   -0.0195 H   0  0  0  0  0  0  0  0  0  0  0  0
    1.1523    3.1709    0.0077 H   0  0  0  0  0  0  0  0  0  0  0  0
   -0.5106    3.9028   -0.8643 H   0  0  0  0  0  0  0  0  0  0  0  0
   -2.0258    4.1581    0.0342 H   0  0  0  0  0  0  0  0  0  0  0  0
   -0.5022    3.8931    0.9156 H   0  0  0  0  0  0  0  0  0  0  0  0
   -2.3192    0.6700   -1.2326 H   0  0  0  0  0  0  0  0  0  0  0  0
   -3.0868    2.2759   -1.2203 H   0  0  0  0  0  0  0  0  0  0  0  0
   -1.5717    2.0206   -2.1188 H   0  0  0  0  0  0  0  0  0  0  0  0
   -1.5515    1.9973    2.1595 H   0  0  0  0  0  0  0  0  0  0  0  0
   -3.0750    2.2623    1.2781 H   0  0  0  0  0  0  0  0  0  0  0  0
   -2.3074    0.6564    1.2658 H   0  0  0  0  0  0  0  0  0  0  0  0
   -2.0761   -2.5532    0.0081 H   0  0  0  0  0  0  0  0  0  0  0  0
   -0.5463   -2.4487   -0.8959 H   0  0  0  0  0  0  0  0  0  0  0  0
   -0.5294   -2.4582    0.8839 H   0  0  0  0  0  0  0  0  0  0  0  0
    7.9747    6.7997   -1.5509 O   0  5  0  0  0  0  0  0  0  0  0  0
  1  2  1  0  0  0  0
  1 28  1  0  0  0  0
  1 29  1  0  0  0  0
  1 30  1  0  0  0  0
  2  3  1  0  0  0  0
  2 31  1  0  0  0  0
  2 32  1  0  0  0  0
  3  4  1  0  0  0  0
  3  5  1  0  0  0  0
  3  6  1  0  0  0  0
  5 33  1  0  0  0  0
  5 34  1  0  0  0  0
  5 35  1  0  0  0  0
  6  7  1  0  0  0  0
  6  8  1  0  0  0  0
  6 10  1  0  0  0  0
  8  9  2  0  0  0  0
  8 53  1  0  0  0  0
 10 11  1  0  0  0  0
 10 36  1  0  0  0  0
 11 15  1  0  0  0  0
 11 12  2  0  0  0  0
 12 13  1  0  0  0  0
 13 14  2  0  0  0  0
 13 16  1  0  0  0  0
 14 15  1  0  0  0  0
 14 37  1  0  0  0  0
 16 21  2  0  0  0  0
 16 17  1  0  0  0  0
 17 18  2  0  0  0  0
 17 38  1  0  0  0  0
 18 19  1  0  0  0  0
 18 39  1  0  0  0  0
 19 20  2  0  0  0  0
 19 26  1  0  0  0  0
 20 21  1  0  0  0  0
 20 22  1  0  0  0  0
 21 40  1  0  0  0  0
 22 23  1  0  0  0  0
 22 24  1  0  0  0  0
 22 25  1  0  0  0  0
 23 41  1  0  0  0  0
 23 42  1  0  0  0  0
 23 43  1  0  0  0  0
 24 44  1  0  0  0  0
 24 45  1  0  0  0  0
 24 46  1  0  0  0  0
 25 47  1  0  0  0  0
 25 48  1  0  0  0  0
 25 49  1  0  0  0  0
 26 27  1  0  0  0  0
 27 50  1  0  0  0  0
 27 51  1  0  0  0  0
 27 52  1  0  0  0  0
M  CHG  1  53  -1
M  END
$$$$
ZINC03856759
  -OEChem-08230709463D

 53 54  0     1  0  0  0  0  0999 V2000
    4.8251    8.3961    2.9101 C   0  0  0  0  0  0  0  0  0  0  0  0
    5.4679    7.1581    2.2816 C   0  0  0  0  0  0  0  0  0  0  0  0
    5.6487    7.3844    0.7793 C   0  0  2  0  0  0  0  0  0  0  0  0
    6.2083    8.3053    0.6153 H   0  0  0  0  0  0  0  0  0  0  0  0
    4.2766    7.4956    0.1115 C   0  0  0  0  0  0  0  0  0  0  0  0
    6.4160    6.2068    0.1749 C   0  0  2  0  0  0  0  0  0  0  0  0
    7.3812    6.1086    0.6717 H   0  0  0  0  0  0  0  0  0  0  0  0
    6.6310    6.4496   -1.2968 C   0  0  0  0  0  0  0  0  0  0  0  0
    5.8907    5.9442   -2.1070 O   0  0  0  0  0  0  0  0  0  0  0  0
    5.6445    4.9751    0.3590 N   0  0  0  0  0  0  0  0  0  0  0  0
    6.2913    3.7501    0.3869 C   0  0  0  0  0  0  0  0  0  0  0  0
    5.7827    2.5405    0.5347 N   0  0  0  0  0  0  0  0  0  0  0  0
    6.5631    1.4622    0.5413 C   0  0  0  0  0  0  0  0  0  0  0  0
    7.9112    1.6116    0.3818 C   0  0  0  0  0  0  0  0  0  0  0  0
    8.0340    3.3884    0.2254 S   0  0  0  0  0  0  0  0  0  0  0  0
    5.9741    0.1119    0.7139 C   0  0  0  0  0  0  0  0  0  0  0  0
    6.8034   -1.0039    0.8187 C   0  0  0  0  0  0  0  0  0  0  0  0
    6.2526   -2.2580    0.9787 C   0  0  0  0  0  0  0  0  0  0  0  0
    4.8738   -2.4102    1.0354 C   0  0  0  0  0  0  0  0  0  0  0  0
    4.0455   -1.3015    0.9310 C   0  0  0  0  0  0  0  0  0  0  0  0
    4.5902   -0.0443    0.7708 C   0  0  0  0  0  0  0  0  0  0  0  0
    2.5492   -1.4720    0.9864 C   0  0  0  0  0  0  0  0  0  0  0  0
    1.8748   -0.1056    0.8493 C   0  0  0  0  0  0  0  0  0  0  0  0
    2.0968   -2.3812   -0.1580 C   0  0  0  0  0  0  0  0  0  0  0  0
    2.1569   -2.1024    2.3242 C   0  0  0  0  0  0  0  0  0  0  0  0
    4.3341   -3.6475    1.1932 O   0  0  0  0  0  0  0  0  0  0  0  0
    5.2444   -4.7444    1.2939 C   0  0  0  0  0  0  0  0  0  0  0  0
    5.4680    9.2613    2.7478 H   0  0  0  0  0  0  0  0  0  0  0  0
    3.8532    8.5742    2.4500 H   0  0  0  0  0  0  0  0  0  0  0  0
    4.6963    8.2349    3.9804 H   0  0  0  0  0  0  0  0  0  0  0  0
    4.8251    6.2929    2.4440 H   0  0  0  0  0  0  0  0  0  0  0  0
    6.4398    6.9800    2.7418 H   0  0  0  0  0  0  0  0  0  0  0  0
    3.7170    6.5748    0.2755 H   0  0  0  0  0  0  0  0  0  0  0  0
    3.7299    8.3346    0.5421 H   0  0  0  0  0  0  0  0  0  0  0  0
    4.4054    7.6569   -0.9588 H   0  0  0  0  0  0  0  0  0  0  0  0
    4.6808    5.0171    0.4613 H   0  0  0  0  0  0  0  0  0  0  0  0
    8.6890    0.8627    0.3571 H   0  0  0  0  0  0  0  0  0  0  0  0
    7.8761   -0.8862    0.7743 H   0  0  0  0  0  0  0  0  0  0  0  0
    6.8945   -3.1227    1.0602 H   0  0  0  0  0  0  0  0  0  0  0  0
    3.9451    0.8180    0.6892 H   0  0  0  0  0  0  0  0  0  0  0  0
    2.1542    0.3436   -0.1038 H   0  0  0  0  0  0  0  0  0  0  0  0
    0.7925   -0.2289    0.8894 H   0  0  0  0  0  0  0  0  0  0  0  0
    2.1971    0.5421    1.6646 H   0  0  0  0  0  0  0  0  0  0  0  0
    2.5773   -3.3547   -0.0603 H   0  0  0  0  0  0  0  0  0  0  0  0
    1.0145   -2.5045   -0.1179 H   0  0  0  0  0  0  0  0  0  0  0  0
    2.3762   -1.9321   -1.1110 H   0  0  0  0  0  0  0  0  0  0  0  0
    2.4792   -1.4547    3.1394 H   0  0  0  0  0  0  0  0  0  0  0  0
    1.0747   -2.2258    2.3642 H   0  0  0  0  0  0  0  0  0  0  0  0
    2.6374   -3.0759    2.4218 H   0  0  0  0  0  0  0  0  0  0  0  0
    5.8468   -4.8011    0.3873 H   0  0  0  0  0  0  0  0  0  0  0  0
    5.8965   -4.5974    2.1549 H   0  0  0  0  0  0  0  0  0  0  0  0
    4.6842   -5.6714    1.4165 H   0  0  0  0  0  0  0  0  0  0  0  0
    7.6450    7.2273   -1.7076 O   0  5  0  0  0  0  0  0  0  0  0  0
  1  2  1  0  0  0  0
  1 28  1  0  0  0  0
  1 29  1  0  0  0  0
  1 30  1  0  0  0  0
  2  3  1  0  0  0  0
  2 31  1  0  0  0  0
  2 32  1  0  0  0  0
  3  4  1  0  0  0  0
  3  5  1  0  0  0  0
  3  6  1  0  0  0  0
  5 33  1  0  0  0  0
  5 34  1  0  0  0  0
  5 35  1  0  0  0  0
  6  7  1  0  0  0  0
  6  8  1  0  0  0  0
  6 10  1  0  0  0  0
  8  9  2  0  0  0  0
  8 53  1  0  0  0  0
 10 11  1  0  0  0  0
 10 36  1  0  0  0  0
 11 15  1  0  0  0  0
 11 12  2  0  0  0  0
 12 13  1  0  0  0  0
 13 14  2  0  0  0  0
 13 16  1  0  0  0  0
 14 15  1  0  0  0  0
 14 37  1  0  0  0  0
 16 21  2  0  0  0  0
 16 17  1  0  0  0  0
 17 18  2  0  0  0  0
 17 38  1  0  0  0  0
 18 19  1  0  0  0  0
 18 39  1  0  0  0  0
 19 20  2  0  0  0  0
 19 26  1  0  0  0  0
 20 21  1  0  0  0  0
 20 22  1  0  0  0  0
 21 40  1  0  0  0  0
 22 23  1  0  0  0  0
 22 24  1  0  0  0  0
 22 25  1  0  0  0  0
 23 41  1  0  0  0  0
 23 42  1  0  0  0  0
 23 43  1  0  0  0  0
 24 44  1  0  0  0  0
 24 45  1  0  0  0  0
 24 46  1  0  0  0  0
 25 47  1  0  0  0  0
 25 48  1  0  0  0  0
 25 49  1  0  0  0  0
 26 27  1  0  0  0  0
 27 50  1  0  0  0  0
 27 51  1  0  0  0  0
 27 52  1  0  0  0  0
M  CHG  1  53  -1
M  END
$$$$
ZINC03856760
  -OEChem-08230709463D

 56 57  0     1  0  0  0  0  0999 V2000
   -4.8060   -9.7689   -2.6856 C   0  0  0  0  0  0  0  0  0  0  0  0
   -4.7118   -8.2428   -2.6287 C   0  0  0  0  0  0  0  0  0  0  0  0
   -3.5324   -7.8646   -1.9159 O   0  0  0  0  0  0  0  0  0  0  0  0
   -3.2975   -6.5335   -1.7739 C   0  0  0  0  0  0  0  0  0  0  0  0
   -4.1862   -5.6121   -2.3111 C   0  0  0  0  0  0  0  0  0  0  0  0
   -3.9504   -4.2607   -2.1691 C   0  0  0  0  0  0  0  0  0  0  0  0
   -2.8183   -3.8203   -1.4848 C   0  0  0  0  0  0  0  0  0  0  0  0
   -1.9253   -4.7479   -0.9513 C   0  0  0  0  0  0  0  0  0  0  0  0
   -2.1694   -6.0983   -1.0925 C   0  0  0  0  0  0  0  0  0  0  0  0
   -1.2074   -7.1019   -0.5110 C   0  0  0  0  0  0  0  0  0  0  0  0
   -0.0593   -6.3656    0.1823 C   0  0  0  0  0  0  0  0  0  0  0  0
   -1.9390   -7.9792    0.5069 C   0  0  0  0  0  0  0  0  0  0  0  0
   -0.6471   -7.9800   -1.6317 C   0  0  0  0  0  0  0  0  0  0  0  0
   -2.5617   -2.3675   -1.3303 C   0  0  0  0  0  0  0  0  0  0  0  0
   -3.4794   -1.4546   -1.7655 C   0  0  0  0  0  0  0  0  0  0  0  0
   -2.6610    0.0745   -1.3315 S   0  0  0  0  0  0  0  0  0  0  0  0
   -1.1907   -0.6506   -0.6198 C   0  0  0  0  0  0  0  0  0  0  0  0
   -1.4323   -1.9400   -0.7703 N   0  0  0  0  0  0  0  0  0  0  0  0
   -0.0868   -0.0252   -0.0631 N   0  0  0  0  0  0  0  0  0  0  0  0
   -0.0257    1.4373   -0.0043 C   0  0  2  0  0  0  0  0  0  0  0  0
   -0.5040    1.8568   -0.8894 H   0  0  0  0  0  0  0  0  0  0  0  0
    1.4365    1.8850    0.0458 C   0  0  0  0  0  0  0  0  0  0  0  0
    2.1337    1.4969   -1.2596 C   0  0  0  0  0  0  0  0  0  0  0  0
    1.5263    2.2910   -2.4178 C   0  0  0  0  0  0  0  0  0  0  0  0
    3.6272    1.8118   -1.1532 C   0  0  0  0  0  0  0  0  0  0  0  0
   -0.7417    1.9208    1.2305 C   0  0  0  0  0  0  0  0  0  0  0  0
   -1.2508    1.1253    1.9840 O   0  0  0  0  0  0  0  0  0  0  0  0
   -5.7055  -10.0573   -3.2294 H   0  0  0  0  0  0  0  0  0  0  0  0
   -3.9293  -10.1682   -3.1956 H   0  0  0  0  0  0  0  0  0  0  0  0
   -4.8501  -10.1682   -1.6724 H   0  0  0  0  0  0  0  0  0  0  0  0
   -5.5884   -7.8435   -2.1187 H   0  0  0  0  0  0  0  0  0  0  0  0
   -4.6676   -7.8435   -3.6420 H   0  0  0  0  0  0  0  0  0  0  0  0
   -5.0629   -5.9539   -2.8410 H   0  0  0  0  0  0  0  0  0  0  0  0
   -4.6417   -3.5445   -2.5879 H   0  0  0  0  0  0  0  0  0  0  0  0
   -1.0452   -4.4098   -0.4245 H   0  0  0  0  0  0  0  0  0  0  0  0
   -0.4585   -5.7400    0.9807 H   0  0  0  0  0  0  0  0  0  0  0  0
    0.6365   -7.0915    0.6030 H   0  0  0  0  0  0  0  0  0  0  0  0
    0.4619   -5.7406   -0.5428 H   0  0  0  0  0  0  0  0  0  0  0  0
   -2.7569   -8.5038    0.0129 H   0  0  0  0  0  0  0  0  0  0  0  0
   -1.2432   -8.7052    0.9275 H   0  0  0  0  0  0  0  0  0  0  0  0
   -2.3382   -7.3537    1.3053 H   0  0  0  0  0  0  0  0  0  0  0  0
   -0.1258   -7.3550   -2.3568 H   0  0  0  0  0  0  0  0  0  0  0  0
    0.0488   -8.7059   -1.2110 H   0  0  0  0  0  0  0  0  0  0  0  0
   -1.4650   -8.5046   -2.1256 H   0  0  0  0  0  0  0  0  0  0  0  0
   -4.4362   -1.6128   -2.2409 H   0  0  0  0  0  0  0  0  0  0  0  0
    0.6455   -0.5558    0.2877 H   0  0  0  0  0  0  0  0  0  0  0  0
    1.4811    2.9666    0.1740 H   0  0  0  0  0  0  0  0  0  0  0  0
    1.9368    1.3990    0.8834 H   0  0  0  0  0  0  0  0  0  0  0  0
    1.9992    0.4305   -1.4402 H   0  0  0  0  0  0  0  0  0  0  0  0
    1.6609    3.3575   -2.2372 H   0  0  0  0  0  0  0  0  0  0  0  0
    2.0231    2.0145   -3.3478 H   0  0  0  0  0  0  0  0  0  0  0  0
    0.4624    2.0667   -2.4936 H   0  0  0  0  0  0  0  0  0  0  0  0
    4.0612    1.2412   -0.3322 H   0  0  0  0  0  0  0  0  0  0  0  0
    4.1228    1.5413   -2.0856 H   0  0  0  0  0  0  0  0  0  0  0  0
    3.7615    2.8772   -0.9662 H   0  0  0  0  0  0  0  0  0  0  0  0
   -0.8139    3.2351    1.4931 O   0  5  0  0  0  0  0  0  0  0  0  0
  1  2  1  0  0  0  0
  1 28  1  0  0  0  0
  1 29  1  0  0  0  0
  1 30  1  0  0  0  0
  2  3  1  0  0  0  0
  2 31  1  0  0  0  0
  2 32  1  0  0  0  0
  3  4  1  0  0  0  0
  4  9  2  0  0  0  0
  4  5  1  0  0  0  0
  5  6  2  0  0  0  0
  5 33  1  0  0  0  0
  6  7  1  0  0  0  0
  6 34  1  0  0  0  0
  7  8  2  0  0  0  0
  7 14  1  0  0  0  0
  8  9  1  0  0  0  0
  8 35  1  0  0  0  0
  9 10  1  0  0  0  0
 10 11  1  0  0  0  0
 10 12  1  0  0  0  0
 10 13  1  0  0  0  0
 11 36  1  0  0  0  0
 11 37  1  0  0  0  0
 11 38  1  0  0  0  0
 12 39  1  0  0  0  0
 12 40  1  0  0  0  0
 12 41  1  0  0  0  0
 13 42  1  0  0  0  0
 13 43  1  0  0  0  0
 13 44  1  0  0  0  0
 14 18  1  0  0  0  0
 14 15  2  0  0  0  0
 15 16  1  0  0  0  0
 15 45  1  0  0  0  0
 16 17  1  0  0  0  0
 17 18  2  0  0  0  0
 17 19  1  0  0  0  0
 19 20  1  0  0  0  0
 19 46  1  0  0  0  0
 20 21  1  0  0  0  0
 20 22  1  0  0  0  0
 20 26  1  0  0  0  0
 22 23  1  0  0  0  0
 22 47  1  0  0  0  0
 22 48  1  0  0  0  0
 23 24  1  0  0  0  0
 23 25  1  0  0  0  0
 23 49  1  0  0  0  0
 24 50  1  0  0  0  0
 24 51  1  0  0  0  0
 24 52  1  0  0  0  0
 25 53  1  0  0  0  0
 25 54  1  0  0  0  0
 25 55  1  0  0  0  0
 26 27  2  0  0  0  0
 26 56  1  0  0  0  0
M  CHG  1  56  -1
M  END
$$$$
ZINC03856761
  -OEChem-08230709463D

 56 57  0     1  0  0  0  0  0999 V2000
   -0.4491    0.1797    3.1005 C   0  0  0  0  0  0  0  0  0  0  0  0
   -0.2731    1.6686    2.7951 C   0  0  0  0  0  0  0  0  0  0  0  0
   -1.2455    2.0806    1.6881 C   0  0  1  0  0  0  0  0  0  0  0  0
   -1.1092    1.4302    0.8241 H   0  0  0  0  0  0  0  0  0  0  0  0
   -2.6823    1.9557    2.1989 C   0  0  0  0  0  0  0  0  0  0  0  0
   -0.9725    3.5306    1.2831 C   0  0  1  0  0  0  0  0  0  0  0  0
    0.0694    3.6330    0.9795 H   0  0  0  0  0  0  0  0  0  0  0  0
   -1.8702    3.9085    0.1332 C   0  0  0  0  0  0  0  0  0  0  0  0
   -2.8899    4.5229    0.3395 O   0  0  0  0  0  0  0  0  0  0  0  0
   -1.2386    4.4139    2.4211 N   0  0  0  0  0  0  0  0  0  0  0  0
   -0.6070    5.6441    2.5057 C   0  0  0  0  0  0  0  0  0  0  0  0
   -0.7143    6.5756    3.4355 N   0  0  0  0  0  0  0  0  0  0  0  0
   -0.0214    7.7094    3.3565 C   0  0  0  0  0  0  0  0  0  0  0  0
    0.8058    7.9145    2.2894 C   0  0  0  0  0  0  0  0  0  0  0  0
    0.5626    6.3937    1.3814 S   0  0  0  0  0  0  0  0  0  0  0  0
   -0.1511    8.7420    4.4135 C   0  0  0  0  0  0  0  0  0  0  0  0
    0.4907    9.9715    4.2714 C   0  0  0  0  0  0  0  0  0  0  0  0
    0.3678   10.9296    5.2557 C   0  0  0  0  0  0  0  0  0  0  0  0
   -0.3939   10.6709    6.3871 C   0  0  0  0  0  0  0  0  0  0  0  0
   -1.0340    9.4479    6.5316 C   0  0  0  0  0  0  0  0  0  0  0  0
   -0.9194    8.4873    5.5481 C   0  0  0  0  0  0  0  0  0  0  0  0
   -1.8599    9.1713    7.7614 C   0  0  0  0  0  0  0  0  0  0  0  0
   -2.4516    7.7631    7.6722 C   0  0  0  0  0  0  0  0  0  0  0  0
   -0.9739    9.2744    9.0045 C   0  0  0  0  0  0  0  0  0  0  0  0
   -2.9926   10.1954    7.8560 C   0  0  0  0  0  0  0  0  0  0  0  0
   -0.5134   11.6174    7.3552 O   0  0  0  0  0  0  0  0  0  0  0  0
    0.1712   12.8534    7.1420 C   0  0  0  0  0  0  0  0  0  0  0  0
   -0.0790   13.7862    8.3287 C   0  0  0  0  0  0  0  0  0  0  0  0
   -0.2443   -0.4022    2.2018 H   0  0  0  0  0  0  0  0  0  0  0  0
    0.2437   -0.1138    3.8891 H   0  0  0  0  0  0  0  0  0  0  0  0
   -1.4721   -0.0055    3.4280 H   0  0  0  0  0  0  0  0  0  0  0  0
   -0.4779    2.2505    3.6938 H   0  0  0  0  0  0  0  0  0  0  0  0
    0.7499    1.8538    2.4676 H   0  0  0  0  0  0  0  0  0  0  0  0
   -2.8186    2.6061    3.0629 H   0  0  0  0  0  0  0  0  0  0  0  0
   -3.3751    2.2492    1.4102 H   0  0  0  0  0  0  0  0  0  0  0  0
   -2.8768    0.9227    2.4874 H   0  0  0  0  0  0  0  0  0  0  0  0
   -1.8571    4.1374    3.1154 H   0  0  0  0  0  0  0  0  0  0  0  0
    1.4341    8.7619    2.0579 H   0  0  0  0  0  0  0  0  0  0  0  0
    1.0831   10.1735    3.3913 H   0  0  0  0  0  0  0  0  0  0  0  0
    0.8644   11.8824    5.1460 H   0  0  0  0  0  0  0  0  0  0  0  0
   -1.4214    7.5375    5.6590 H   0  0  0  0  0  0  0  0  0  0  0  0
   -1.6446    7.0335    7.6048 H   0  0  0  0  0  0  0  0  0  0  0  0
   -3.0489    7.5630    8.5617 H   0  0  0  0  0  0  0  0  0  0  0  0
   -3.0827    7.6896    6.7866 H   0  0  0  0  0  0  0  0  0  0  0  0
   -0.5524   10.2776    9.0680 H   0  0  0  0  0  0  0  0  0  0  0  0
   -1.5713    9.0743    9.8940 H   0  0  0  0  0  0  0  0  0  0  0  0
   -0.1669    8.5448    8.9371 H   0  0  0  0  0  0  0  0  0  0  0  0
   -3.6238   10.1219    6.9704 H   0  0  0  0  0  0  0  0  0  0  0  0
   -3.5900    9.9953    8.7455 H   0  0  0  0  0  0  0  0  0  0  0  0
   -2.5711   11.1986    7.9195 H   0  0  0  0  0  0  0  0  0  0  0  0
    1.2406   12.6649    7.0472 H   0  0  0  0  0  0  0  0  0  0  0  0
   -0.1978   13.3203    6.2287 H   0  0  0  0  0  0  0  0  0  0  0  0
   -1.1483   13.9748    8.4234 H   0  0  0  0  0  0  0  0  0  0  0  0
    0.2900   13.3194    9.2419 H   0  0  0  0  0  0  0  0  0  0  0  0
    0.4433   14.7291    8.1660 H   0  0  0  0  0  0  0  0  0  0  0  0
   -1.5370    3.5624   -1.1202 O   0  5  0  0  0  0  0  0  0  0  0  0
  1  2  1  0  0  0  0
  1 29  1  0  0  0  0
  1 30  1  0  0  0  0
  1 31  1  0  0  0  0
  2  3  1  0  0  0  0
  2 32  1  0  0  0  0
  2 33  1  0  0  0  0
  3  4  1  0  0  0  0
  3  5  1  0  0  0  0
  3  6  1  0  0  0  0
  5 34  1  0  0  0  0
  5 35  1  0  0  0  0
  5 36  1  0  0  0  0
  6  7  1  0  0  0  0
  6  8  1  0  0  0  0
  6 10  1  0  0  0  0
  8  9  2  0  0  0  0
  8 56  1  0  0  0  0
 10 11  1  0  0  0  0
 10 37  1  0  0  0  0
 11 15  1  0  0  0  0
 11 12  2  0  0  0  0
 12 13  1  0  0  0  0
 13 14  2  0  0  0  0
 13 16  1  0  0  0  0
 14 15  1  0  0  0  0
 14 38  1  0  0  0  0
 16 21  2  0  0  0  0
 16 17  1  0  0  0  0
 17 18  2  0  0  0  0
 17 39  1  0  0  0  0
 18 19  1  0  0  0  0
 18 40  1  0  0  0  0
 19 20  2  0  0  0  0
 19 26  1  0  0  0  0
 20 21  1  0  0  0  0
 20 22  1  0  0  0  0
 21 41  1  0  0  0  0
 22 23  1  0  0  0  0
 22 24  1  0  0  0  0
 22 25  1  0  0  0  0
 23 42  1  0  0  0  0
 23 43  1  0  0  0  0
 23 44  1  0  0  0  0
 24 45  1  0  0  0  0
 24 46  1  0  0  0  0
 24 47  1  0  0  0  0
 25 48  1  0  0  0  0
 25 49  1  0  0  0  0
 25 50  1  0  0  0  0
 26 27  1  0  0  0  0
 27 28  1  0  0  0  0
 27 51  1  0  0  0  0
 27 52  1  0  0  0  0
 28 53  1  0  0  0  0
 28 54  1  0  0  0  0
 28 55  1  0  0  0  0
M  CHG  1  56  -1
M  END
$$$$
ZINC03856762
  -OEChem-08230709463D

 56 57  0     1  0  0  0  0  0999 V2000
   -3.9729  -11.4996    1.4265 C   0  0  0  0  0  0  0  0  0  0  0  0
   -2.8240  -10.8017    0.6960 C   0  0  0  0  0  0  0  0  0  0  0  0
   -3.1204   -9.3042    0.5923 C   0  0  2  0  0  0  0  0  0  0  0  0
   -3.3109   -8.9019    1.5873 H   0  0  0  0  0  0  0  0  0  0  0  0
   -4.3517   -9.0879   -0.2897 C   0  0  0  0  0  0  0  0  0  0  0  0
   -1.9180   -8.5879   -0.0258 C   0  0  1  0  0  0  0  0  0  0  0  0
   -1.0229   -8.8147    0.5533 H   0  0  0  0  0  0  0  0  0  0  0  0
   -1.7298   -9.0562   -1.4457 C   0  0  0  0  0  0  0  0  0  0  0  0
   -1.7860   -8.2635   -2.3558 O   0  0  0  0  0  0  0  0  0  0  0  0
   -2.1529   -7.1419   -0.0156 N   0  0  0  0  0  0  0  0  0  0  0  0
   -1.0796   -6.2657   -0.0218 C   0  0  0  0  0  0  0  0  0  0  0  0
   -1.0796   -4.9453   -0.0092 N   0  0  0  0  0  0  0  0  0  0  0  0
    0.0598   -4.2572   -0.0223 C   0  0  0  0  0  0  0  0  0  0  0  0
    1.2476   -4.9310   -0.0377 C   0  0  0  0  0  0  0  0  0  0  0  0
    0.6713   -6.6235   -0.0411 S   0  0  0  0  0  0  0  0  0  0  0  0
    0.0397   -2.7741   -0.0141 C   0  0  0  0  0  0  0  0  0  0  0  0
    1.2365   -2.0592   -0.0217 C   0  0  0  0  0  0  0  0  0  0  0  0
    1.2144   -0.6802   -0.0190 C   0  0  0  0  0  0  0  0  0  0  0  0
    0.0021   -0.0041    0.0020 C   0  0  0  0  0  0  0  0  0  0  0  0
   -1.1912   -0.7128    0.0096 C   0  0  0  0  0  0  0  0  0  0  0  0
   -1.1758   -2.0922    0.0016 C   0  0  0  0  0  0  0  0  0  0  0  0
   -2.5049    0.0253    0.0271 C   0  0  0  0  0  0  0  0  0  0  0  0
   -3.6561   -0.9826    0.0325 C   0  0  0  0  0  0  0  0  0  0  0  0
   -2.5838    0.8963    1.2825 C   0  0  0  0  0  0  0  0  0  0  0  0
   -2.6087    0.9114   -1.2158 C   0  0  0  0  0  0  0  0  0  0  0  0
   -0.0164    1.3549    0.0095 O   0  0  0  0  0  0  0  0  0  0  0  0
    1.2479    2.0209    0.0010 C   0  0  0  0  0  0  0  0  0  0  0  0
    1.0269    3.5349    0.0112 C   0  0  0  0  0  0  0  0  0  0  0  0
   -3.7617  -12.5664    1.5003 H   0  0  0  0  0  0  0  0  0  0  0  0
   -4.0757  -11.0795    2.4270 H   0  0  0  0  0  0  0  0  0  0  0  0
   -4.8997  -11.3502    0.8727 H   0  0  0  0  0  0  0  0  0  0  0  0
   -2.7211  -11.2218   -0.3046 H   0  0  0  0  0  0  0  0  0  0  0  0
   -1.8971  -10.9511    1.2498 H   0  0  0  0  0  0  0  0  0  0  0  0
   -5.2083   -9.5982    0.1507 H   0  0  0  0  0  0  0  0  0  0  0  0
   -4.5629   -8.0211   -0.3635 H   0  0  0  0  0  0  0  0  0  0  0  0
   -4.1611   -9.4903   -1.2846 H   0  0  0  0  0  0  0  0  0  0  0  0
   -3.0598   -6.7979   -0.0044 H   0  0  0  0  0  0  0  0  0  0  0  0
    2.2570   -4.5472   -0.0453 H   0  0  0  0  0  0  0  0  0  0  0  0
    2.1800   -2.5846   -0.0339 H   0  0  0  0  0  0  0  0  0  0  0  0
    2.1412   -0.1258   -0.0290 H   0  0  0  0  0  0  0  0  0  0  0  0
   -2.1047   -2.6432    0.0071 H   0  0  0  0  0  0  0  0  0  0  0  0
   -3.5822   -1.6139    0.9180 H   0  0  0  0  0  0  0  0  0  0  0  0
   -4.6063   -0.4487    0.0451 H   0  0  0  0  0  0  0  0  0  0  0  0
   -3.5998   -1.6031   -0.8619 H   0  0  0  0  0  0  0  0  0  0  0  0
   -1.7637    1.6143    1.2787 H   0  0  0  0  0  0  0  0  0  0  0  0
   -3.5341    1.4302    1.2951 H   0  0  0  0  0  0  0  0  0  0  0  0
   -2.5099    0.2650    2.1680 H   0  0  0  0  0  0  0  0  0  0  0  0
   -2.5525    0.2908   -2.1102 H   0  0  0  0  0  0  0  0  0  0  0  0
   -3.5589    1.4452   -1.2032 H   0  0  0  0  0  0  0  0  0  0  0  0
   -1.7886    1.6294   -1.2197 H   0  0  0  0  0  0  0  0  0  0  0  0
    1.8173    1.7309    0.8840 H   0  0  0  0  0  0  0  0  0  0  0  0
    1.8003    1.7405   -0.8958 H   0  0  0  0  0  0  0  0  0  0  0  0
    0.4745    3.8154    0.9081 H   0  0  0  0  0  0  0  0  0  0  0  0
    1.9913    4.0429    0.0048 H   0  0  0  0  0  0  0  0  0  0  0  0
    0.4575    3.8249   -0.8718 H   0  0  0  0  0  0  0  0  0  0  0  0
   -1.4996  -10.3541   -1.6995 O   0  5  0  0  0  0  0  0  0  0  0  0
  1  2  1  0  0  0  0
  1 29  1  0  0  0  0
  1 30  1  0  0  0  0
  1 31  1  0  0  0  0
  2  3  1  0  0  0  0
  2 32  1  0  0  0  0
  2 33  1  0  0  0  0
  3  4  1  0  0  0  0
  3  5  1  0  0  0  0
  3  6  1  0  0  0  0
  5 34  1  0  0  0  0
  5 35  1  0  0  0  0
  5 36  1  0  0  0  0
  6  7  1  0  0  0  0
  6  8  1  0  0  0  0
  6 10  1  0  0  0  0
  8  9  2  0  0  0  0
  8 56  1  0  0  0  0
 10 11  1  0  0  0  0
 10 37  1  0  0  0  0
 11 15  1  0  0  0  0
 11 12  2  0  0  0  0
 12 13  1  0  0  0  0
 13 14  2  0  0  0  0
 13 16  1  0  0  0  0
 14 15  1  0  0  0  0
 14 38  1  0  0  0  0
 16 21  2  0  0  0  0
 16 17  1  0  0  0  0
 17 18  2  0  0  0  0
 17 39  1  0  0  0  0
 18 19  1  0  0  0  0
 18 40  1  0  0  0  0
 19 20  2  0  0  0  0
 19 26  1  0  0  0  0
 20 21  1  0  0  0  0
 20 22  1  0  0  0  0
 21 41  1  0  0  0  0
 22 23  1  0  0  0  0
 22 24  1  0  0  0  0
 22 25  1  0  0  0  0
 23 42  1  0  0  0  0
 23 43  1  0  0  0  0
 23 44  1  0  0  0  0
 24 45  1  0  0  0  0
 24 46  1  0  0  0  0
 24 47  1  0  0  0  0
 25 48  1  0  0  0  0
 25 49  1  0  0  0  0
 25 50  1  0  0  0  0
 26 27  1  0  0  0  0
 27 28  1  0  0  0  0
 27 51  1  0  0  0  0
 27 52  1  0  0  0  0
 28 53  1  0  0  0  0
 28 54  1  0  0  0  0
 28 55  1  0  0  0  0
M  CHG  1  56  -1
M  END
$$$$
ZINC03856763
  -OEChem-08230709463D

 56 57  0     1  0  0  0  0  0999 V2000
   -4.9303   -8.4768   -2.4770 C   0  0  0  0  0  0  0  0  0  0  0  0
   -3.4797   -8.3840   -1.9995 C   0  0  0  0  0  0  0  0  0  0  0  0
   -3.4177   -8.6717   -0.4980 C   0  0  2  0  0  0  0  0  0  0  0  0
   -3.8909   -9.6318   -0.2922 H   0  0  0  0  0  0  0  0  0  0  0  0
   -4.1527   -7.5671    0.2638 C   0  0  0  0  0  0  0  0  0  0  0  0
   -1.9562   -8.7164   -0.0473 C   0  0  2  0  0  0  0  0  0  0  0  0
   -1.4252   -9.4828   -0.6119 H   0  0  0  0  0  0  0  0  0  0  0  0
   -1.8937   -9.0417    1.4228 C   0  0  0  0  0  0  0  0  0  0  0  0
   -1.7628   -8.1547    2.2328 O   0  0  0  0  0  0  0  0  0  0  0  0
   -1.3315   -7.4130   -0.2861 N   0  0  0  0  0  0  0  0  0  0  0  0
    0.0401   -7.3237   -0.4603 C   0  0  0  0  0  0  0  0  0  0  0  0
    0.7864   -6.2564   -0.6781 N   0  0  0  0  0  0  0  0  0  0  0  0
    2.1052   -6.3580   -0.8281 C   0  0  0  0  0  0  0  0  0  0  0  0
    2.6949   -7.5869   -0.7434 C   0  0  0  0  0  0  0  0  0  0  0  0
    1.2684   -8.6218   -0.4430 S   0  0  0  0  0  0  0  0  0  0  0  0
    2.9263   -5.1484   -1.0784 C   0  0  0  0  0  0  0  0  0  0  0  0
    4.3078   -5.2606   -1.2284 C   0  0  0  0  0  0  0  0  0  0  0  0
    5.0678   -4.1347   -1.4663 C   0  0  0  0  0  0  0  0  0  0  0  0
    4.4600   -2.8890   -1.5451 C   0  0  0  0  0  0  0  0  0  0  0  0
    3.0850   -2.7739   -1.3962 C   0  0  0  0  0  0  0  0  0  0  0  0
    2.3184   -3.8970   -1.1638 C   0  0  0  0  0  0  0  0  0  0  0  0
    2.4286   -1.4205   -1.4882 C   0  0  0  0  0  0  0  0  0  0  0  0
    0.9190   -1.5712   -1.2900 C   0  0  0  0  0  0  0  0  0  0  0  0
    2.9964   -0.5035   -0.4030 C   0  0  0  0  0  0  0  0  0  0  0  0
    2.7040   -0.8126   -2.8649 C   0  0  0  0  0  0  0  0  0  0  0  0
    5.2125   -1.7806   -1.7741 O   0  0  0  0  0  0  0  0  0  0  0  0
    6.6214   -1.9712   -1.9174 C   0  0  0  0  0  0  0  0  0  0  0  0
    7.2959   -0.6209   -2.1676 C   0  0  0  0  0  0  0  0  0  0  0  0
   -5.5366   -7.7461   -1.9416 H   0  0  0  0  0  0  0  0  0  0  0  0
   -4.9745   -8.2718   -3.5466 H   0  0  0  0  0  0  0  0  0  0  0  0
   -5.3133   -9.4787   -2.2829 H   0  0  0  0  0  0  0  0  0  0  0  0
   -3.0967   -7.3821   -2.1935 H   0  0  0  0  0  0  0  0  0  0  0  0
   -2.8735   -9.1147   -2.5348 H   0  0  0  0  0  0  0  0  0  0  0  0
   -3.6795   -6.6070    0.0580 H   0  0  0  0  0  0  0  0  0  0  0  0
   -5.1939   -7.5353   -0.0573 H   0  0  0  0  0  0  0  0  0  0  0  0
   -4.1085   -7.7721    1.3334 H   0  0  0  0  0  0  0  0  0  0  0  0
   -1.8781   -6.6125   -0.3222 H   0  0  0  0  0  0  0  0  0  0  0  0
    3.7363   -7.8587   -0.8335 H   0  0  0  0  0  0  0  0  0  0  0  0
    4.7818   -6.2288   -1.1628 H   0  0  0  0  0  0  0  0  0  0  0  0
    6.1376   -4.2215   -1.5869 H   0  0  0  0  0  0  0  0  0  0  0  0
    1.2484   -3.8068   -1.0484 H   0  0  0  0  0  0  0  0  0  0  0  0
    0.7228   -2.0043   -0.3091 H   0  0  0  0  0  0  0  0  0  0  0  0
    0.4443   -0.5923   -1.3565 H   0  0  0  0  0  0  0  0  0  0  0  0
    0.5145   -2.2245   -2.0631 H   0  0  0  0  0  0  0  0  0  0  0  0
    4.0719   -0.3961   -0.5442 H   0  0  0  0  0  0  0  0  0  0  0  0
    2.5217    0.4754   -0.4695 H   0  0  0  0  0  0  0  0  0  0  0  0
    2.8002   -0.9366    0.5779 H   0  0  0  0  0  0  0  0  0  0  0  0
    2.2995   -1.4658   -3.6381 H   0  0  0  0  0  0  0  0  0  0  0  0
    2.2293    0.1664   -2.9314 H   0  0  0  0  0  0  0  0  0  0  0  0
    3.7795   -0.7052   -3.0062 H   0  0  0  0  0  0  0  0  0  0  0  0
    7.0227   -2.4145   -1.0061 H   0  0  0  0  0  0  0  0  0  0  0  0
    6.8144   -2.6353   -2.7600 H   0  0  0  0  0  0  0  0  0  0  0  0
    6.8946   -0.1776   -3.0789 H   0  0  0  0  0  0  0  0  0  0  0  0
    7.1030    0.0433   -1.3251 H   0  0  0  0  0  0  0  0  0  0  0  0
    8.3706   -0.7662   -2.2770 H   0  0  0  0  0  0  0  0  0  0  0  0
   -1.9834  -10.3168    1.8325 O   0  5  0  0  0  0  0  0  0  0  0  0
  1  2  1  0  0  0  0
  1 29  1  0  0  0  0
  1 30  1  0  0  0  0
  1 31  1  0  0  0  0
  2  3  1  0  0  0  0
  2 32  1  0  0  0  0
  2 33  1  0  0  0  0
  3  4  1  0  0  0  0
  3  5  1  0  0  0  0
  3  6  1  0  0  0  0
  5 34  1  0  0  0  0
  5 35  1  0  0  0  0
  5 36  1  0  0  0  0
  6  7  1  0  0  0  0
  6  8  1  0  0  0  0
  6 10  1  0  0  0  0
  8  9  2  0  0  0  0
  8 56  1  0  0  0  0
 10 11  1  0  0  0  0
 10 37  1  0  0  0  0
 11 15  1  0  0  0  0
 11 12  2  0  0  0  0
 12 13  1  0  0  0  0
 13 14  2  0  0  0  0
 13 16  1  0  0  0  0
 14 15  1  0  0  0  0
 14 38  1  0  0  0  0
 16 21  2  0  0  0  0
 16 17  1  0  0  0  0
 17 18  2  0  0  0  0
 17 39  1  0  0  0  0
 18 19  1  0  0  0  0
 18 40  1  0  0  0  0
 19 20  2  0  0  0  0
 19 26  1  0  0  0  0
 20 21  1  0  0  0  0
 20 22  1  0  0  0  0
 21 41  1  0  0  0  0
 22 23  1  0  0  0  0
 22 24  1  0  0  0  0
 22 25  1  0  0  0  0
 23 42  1  0  0  0  0
 23 43  1  0  0  0  0
 23 44  1  0  0  0  0
 24 45  1  0  0  0  0
 24 46  1  0  0  0  0
 24 47  1  0  0  0  0
 25 48  1  0  0  0  0
 25 49  1  0  0  0  0
 25 50  1  0  0  0  0
 26 27  1  0  0  0  0
 27 28  1  0  0  0  0
 27 51  1  0  0  0  0
 27 52  1  0  0  0  0
 28 53  1  0  0  0  0
 28 54  1  0  0  0  0
 28 55  1  0  0  0  0
M  CHG  1  56  -1
M  END
$$$$
ZINC03856764
  -OEChem-08230709463D

 53 54  0     1  0  0  0  0  0999 V2000
   -4.4415   -9.6390    2.6877 C   0  0  0  0  0  0  0  0  0  0  0  0
   -3.2385   -8.9229    2.0704 C   0  0  0  0  0  0  0  0  0  0  0  0
   -3.1209   -9.3041    0.5933 C   0  0  0  0  0  0  0  0  0  0  0  0
   -1.9180   -8.5879   -0.0240 C   0  0  1  0  0  0  0  0  0  0  0  0
   -1.0233   -8.8145    0.5560 H   0  0  0  0  0  0  0  0  0  0  0  0
   -1.7285   -9.0567   -1.4436 C   0  0  0  0  0  0  0  0  0  0  0  0
   -1.7839   -8.2642   -2.3540 O   0  0  0  0  0  0  0  0  0  0  0  0
   -2.1529   -7.1419   -0.0144 N   0  0  0  0  0  0  0  0  0  0  0  0
   -1.0796   -6.2657   -0.0200 C   0  0  0  0  0  0  0  0  0  0  0  0
   -1.0796   -4.9453   -0.0077 N   0  0  0  0  0  0  0  0  0  0  0  0
    0.0598   -4.2572   -0.0209 C   0  0  0  0  0  0  0  0  0  0  0  0
    1.2476   -4.9311   -0.0358 C   0  0  0  0  0  0  0  0  0  0  0  0
    0.6713   -6.6235   -0.0388 S   0  0  0  0  0  0  0  0  0  0  0  0
    0.0397   -2.7741   -0.0132 C   0  0  0  0  0  0  0  0  0  0  0  0
    1.2366   -2.0592   -0.0208 C   0  0  0  0  0  0  0  0  0  0  0  0
    1.2144   -0.6802   -0.0189 C   0  0  0  0  0  0  0  0  0  0  0  0
    0.0021   -0.0041    0.0020 C   0  0  0  0  0  0  0  0  0  0  0  0
   -1.1912   -0.7128    0.0096 C   0  0  0  0  0  0  0  0  0  0  0  0
   -1.1758   -2.0922    0.0021 C   0  0  0  0  0  0  0  0  0  0  0  0
   -2.5049    0.0253    0.0266 C   0  0  0  0  0  0  0  0  0  0  0  0
   -3.6561   -0.9826    0.0321 C   0  0  0  0  0  0  0  0  0  0  0  0
   -2.5841    0.8967    1.2817 C   0  0  0  0  0  0  0  0  0  0  0  0
   -2.6084    0.9110   -1.2167 C   0  0  0  0  0  0  0  0  0  0  0  0
   -0.0164    1.3549    0.0095 O   0  0  0  0  0  0  0  0  0  0  0  0
    1.2479    2.0209    0.0010 C   0  0  0  0  0  0  0  0  0  0  0  0
    1.0269    3.5349    0.0112 C   0  0  0  0  0  0  0  0  0  0  0  0
   -5.3495   -9.3427    2.1625 H   0  0  0  0  0  0  0  0  0  0  0  0
   -4.3066  -10.7171    2.6003 H   0  0  0  0  0  0  0  0  0  0  0  0
   -4.5253   -9.3675    3.7400 H   0  0  0  0  0  0  0  0  0  0  0  0
   -2.3305   -9.2192    2.5955 H   0  0  0  0  0  0  0  0  0  0  0  0
   -3.3734   -7.8448    2.1578 H   0  0  0  0  0  0  0  0  0  0  0  0
   -4.0289   -9.0077    0.0682 H   0  0  0  0  0  0  0  0  0  0  0  0
   -2.9860  -10.3822    0.5059 H   0  0  0  0  0  0  0  0  0  0  0  0
   -3.0597   -6.7979   -0.0042 H   0  0  0  0  0  0  0  0  0  0  0  0
    2.2570   -4.5472   -0.0440 H   0  0  0  0  0  0  0  0  0  0  0  0
    2.1800   -2.5846   -0.0326 H   0  0  0  0  0  0  0  0  0  0  0  0
    2.1412   -0.1258   -0.0292 H   0  0  0  0  0  0  0  0  0  0  0  0
   -2.1047   -2.6432    0.0076 H   0  0  0  0  0  0  0  0  0  0  0  0
   -3.5823   -1.6136    0.9178 H   0  0  0  0  0  0  0  0  0  0  0  0
   -4.6063   -0.4487    0.0444 H   0  0  0  0  0  0  0  0  0  0  0  0
   -3.5997   -1.6034   -0.8620 H   0  0  0  0  0  0  0  0  0  0  0  0
   -1.7640    1.6147    1.2778 H   0  0  0  0  0  0  0  0  0  0  0  0
   -3.5343    1.4306    1.2940 H   0  0  0  0  0  0  0  0  0  0  0  0
   -2.5104    0.2657    2.1674 H   0  0  0  0  0  0  0  0  0  0  0  0
   -2.5520    0.2901   -2.1108 H   0  0  0  0  0  0  0  0  0  0  0  0
   -3.5587    1.4448   -1.2043 H   0  0  0  0  0  0  0  0  0  0  0  0
   -1.7883    1.6290   -1.2205 H   0  0  0  0  0  0  0  0  0  0  0  0
    1.8173    1.7309    0.8840 H   0  0  0  0  0  0  0  0  0  0  0  0
    1.8003    1.7405   -0.8958 H   0  0  0  0  0  0  0  0  0  0  0  0
    0.4575    3.8249   -0.8718 H   0  0  0  0  0  0  0  0  0  0  0  0
    0.4745    3.8153    0.9081 H   0  0  0  0  0  0  0  0  0  0  0  0
    1.9913    4.0429    0.0048 H   0  0  0  0  0  0  0  0  0  0  0  0
   -1.4981  -10.3546   -1.6967 O   0  5  0  0  0  0  0  0  0  0  0  0
  1  2  1  0  0  0  0
  1 27  1  0  0  0  0
  1 28  1  0  0  0  0
  1 29  1  0  0  0  0
  2  3  1  0  0  0  0
  2 30  1  0  0  0  0
  2 31  1  0  0  0  0
  3  4  1  0  0  0  0
  3 32  1  0  0  0  0
  3 33  1  0  0  0  0
  4  5  1  0  0  0  0
  4  6  1  0  0  0  0
  4  8  1  0  0  0  0
  6  7  2  0  0  0  0
  6 53  1  0  0  0  0
  8  9  1  0  0  0  0
  8 34  1  0  0  0  0
  9 13  1  0  0  0  0
  9 10  2  0  0  0  0
 10 11  1  0  0  0  0
 11 12  2  0  0  0  0
 11 14  1  0  0  0  0
 12 13  1  0  0  0  0
 12 35  1  0  0  0  0
 14 19  2  0  0  0  0
 14 15  1  0  0  0  0
 15 16  2  0  0  0  0
 15 36  1  0  0  0  0
 16 17  1  0  0  0  0
 16 37  1  0  0  0  0
 17 18  2  0  0  0  0
 17 24  1  0  0  0  0
 18 19  1  0  0  0  0
 18 20  1  0  0  0  0
 19 38  1  0  0  0  0
 20 21  1  0  0  0  0
 20 22  1  0  0  0  0
 20 23  1  0  0  0  0
 21 39  1  0  0  0  0
 21 40  1  0  0  0  0
 21 41  1  0  0  0  0
 22 42  1  0  0  0  0
 22 43  1  0  0  0  0
 22 44  1  0  0  0  0
 23 45  1  0  0  0  0
 23 46  1  0  0  0  0
 23 47  1  0  0  0  0
 24 25  1  0  0  0  0
 25 26  1  0  0  0  0
 25 48  1  0  0  0  0
 25 49  1  0  0  0  0
 26 50  1  0  0  0  0
 26 51  1  0  0  0  0
 26 52  1  0  0  0  0
M  CHG  1  53  -1
M  END
$$$$
ZINC03856765
  -OEChem-08230709463D

 53 54  0     1  0  0  0  0  0999 V2000
   -4.4943   -9.6108   -2.6983 C   0  0  0  0  0  0  0  0  0  0  0  0
   -3.2795   -8.9010   -2.0972 C   0  0  0  0  0  0  0  0  0  0  0  0
   -3.1329   -9.2977   -0.6268 C   0  0  0  0  0  0  0  0  0  0  0  0
   -1.9180   -8.5879   -0.0258 C   0  0  2  0  0  0  0  0  0  0  0  0
   -1.0349   -8.8083   -0.6255 H   0  0  0  0  0  0  0  0  0  0  0  0
   -1.7008   -9.0715    1.3849 C   0  0  0  0  0  0  0  0  0  0  0  0
   -1.7383   -8.2886    2.3044 O   0  0  0  0  0  0  0  0  0  0  0  0
   -2.1529   -7.1419   -0.0156 N   0  0  0  0  0  0  0  0  0  0  0  0
   -1.0796   -6.2657   -0.0218 C   0  0  0  0  0  0  0  0  0  0  0  0
   -1.0796   -4.9453   -0.0092 N   0  0  0  0  0  0  0  0  0  0  0  0
    0.0598   -4.2572   -0.0223 C   0  0  0  0  0  0  0  0  0  0  0  0
    1.2476   -4.9310   -0.0377 C   0  0  0  0  0  0  0  0  0  0  0  0
    0.6713   -6.6235   -0.0411 S   0  0  0  0  0  0  0  0  0  0  0  0
    0.0397   -2.7741   -0.0141 C   0  0  0  0  0  0  0  0  0  0  0  0
    1.2365   -2.0592   -0.0217 C   0  0  0  0  0  0  0  0  0  0  0  0
    1.2144   -0.6802   -0.0190 C   0  0  0  0  0  0  0  0  0  0  0  0
    0.0021   -0.0041    0.0020 C   0  0  0  0  0  0  0  0  0  0  0  0
   -1.1912   -0.7128    0.0096 C   0  0  0  0  0  0  0  0  0  0  0  0
   -1.1758   -2.0922    0.0016 C   0  0  0  0  0  0  0  0  0  0  0  0
   -2.5049    0.0253    0.0271 C   0  0  0  0  0  0  0  0  0  0  0  0
   -3.6561   -0.9826    0.0325 C   0  0  0  0  0  0  0  0  0  0  0  0
   -2.5838    0.8963    1.2825 C   0  0  0  0  0  0  0  0  0  0  0  0
   -2.6087    0.9114   -1.2158 C   0  0  0  0  0  0  0  0  0  0  0  0
   -0.0164    1.3549    0.0095 O   0  0  0  0  0  0  0  0  0  0  0  0
    1.2479    2.0209    0.0010 C   0  0  0  0  0  0  0  0  0  0  0  0
    1.0269    3.5349    0.0112 C   0  0  0  0  0  0  0  0  0  0  0  0
   -4.5987   -9.3282   -3.7458 H   0  0  0  0  0  0  0  0  0  0  0  0
   -4.3579  -10.6897   -2.6249 H   0  0  0  0  0  0  0  0  0  0  0  0
   -5.3918   -9.3200   -2.1523 H   0  0  0  0  0  0  0  0  0  0  0  0
   -3.4159   -7.8221   -2.1706 H   0  0  0  0  0  0  0  0  0  0  0  0
   -2.3819   -9.1917   -2.6432 H   0  0  0  0  0  0  0  0  0  0  0  0
   -2.9965  -10.3766   -0.5534 H   0  0  0  0  0  0  0  0  0  0  0  0
   -4.0304   -9.0069   -0.0809 H   0  0  0  0  0  0  0  0  0  0  0  0
   -3.0598   -6.7979   -0.0044 H   0  0  0  0  0  0  0  0  0  0  0  0
    2.2570   -4.5472   -0.0453 H   0  0  0  0  0  0  0  0  0  0  0  0
    2.1800   -2.5846   -0.0339 H   0  0  0  0  0  0  0  0  0  0  0  0
    2.1412   -0.1258   -0.0290 H   0  0  0  0  0  0  0  0  0  0  0  0
   -2.1047   -2.6432    0.0071 H   0  0  0  0  0  0  0  0  0  0  0  0
   -3.5822   -1.6139    0.9180 H   0  0  0  0  0  0  0  0  0  0  0  0
   -4.6063   -0.4487    0.0451 H   0  0  0  0  0  0  0  0  0  0  0  0
   -3.5998   -1.6031   -0.8619 H   0  0  0  0  0  0  0  0  0  0  0  0
   -1.7637    1.6143    1.2787 H   0  0  0  0  0  0  0  0  0  0  0  0
   -3.5341    1.4302    1.2951 H   0  0  0  0  0  0  0  0  0  0  0  0
   -2.5099    0.2650    2.1680 H   0  0  0  0  0  0  0  0  0  0  0  0
   -2.5525    0.2908   -2.1102 H   0  0  0  0  0  0  0  0  0  0  0  0
   -3.5589    1.4452   -1.2032 H   0  0  0  0  0  0  0  0  0  0  0  0
   -1.7886    1.6294   -1.2197 H   0  0  0  0  0  0  0  0  0  0  0  0
    1.8173    1.7309    0.8840 H   0  0  0  0  0  0  0  0  0  0  0  0
    1.8003    1.7405   -0.8958 H   0  0  0  0  0  0  0  0  0  0  0  0
    1.9913    4.0429    0.0048 H   0  0  0  0  0  0  0  0  0  0  0  0
    0.4575    3.8249   -0.8718 H   0  0  0  0  0  0  0  0  0  0  0  0
    0.4745    3.8154    0.9081 H   0  0  0  0  0  0  0  0  0  0  0  0
   -1.4656  -10.3720    1.6198 O   0  5  0  0  0  0  0  0  0  0  0  0
  1  2  1  0  0  0  0
  1 27  1  0  0  0  0
  1 28  1  0  0  0  0
  1 29  1  0  0  0  0
  2  3  1  0  0  0  0
  2 30  1  0  0  0  0
  2 31  1  0  0  0  0
  3  4  1  0  0  0  0
  3 32  1  0  0  0  0
  3 33  1  0  0  0  0
  4  5  1  0  0  0  0
  4  6  1  0  0  0  0
  4  8  1  0  0  0  0
  6  7  2  0  0  0  0
  6 53  1  0  0  0  0
  8  9  1  0  0  0  0
  8 34  1  0  0  0  0
  9 13  1  0  0  0  0
  9 10  2  0  0  0  0
 10 11  1  0  0  0  0
 11 12  2  0  0  0  0
 11 14  1  0  0  0  0
 12 13  1  0  0  0  0
 12 35  1  0  0  0  0
 14 19  2  0  0  0  0
 14 15  1  0  0  0  0
 15 16  2  0  0  0  0
 15 36  1  0  0  0  0
 16 17  1  0  0  0  0
 16 37  1  0  0  0  0
 17 18  2  0  0  0  0
 17 24  1  0  0  0  0
 18 19  1  0  0  0  0
 18 20  1  0  0  0  0
 19 38  1  0  0  0  0
 20 21  1  0  0  0  0
 20 22  1  0  0  0  0
 20 23  1  0  0  0  0
 21 39  1  0  0  0  0
 21 40  1  0  0  0  0
 21 41  1  0  0  0  0
 22 42  1  0  0  0  0
 22 43  1  0  0  0  0
 22 44  1  0  0  0  0
 23 45  1  0  0  0  0
 23 46  1  0  0  0  0
 23 47  1  0  0  0  0
 24 25  1  0  0  0  0
 25 26  1  0  0  0  0
 25 48  1  0  0  0  0
 25 49  1  0  0  0  0
 26 50  1  0  0  0  0
 26 51  1  0  0  0  0
 26 52  1  0  0  0  0
M  CHG  1  53  -1
M  END
$$$$
ZINC03856766
  -OEChem-08230709463D

 51 52  0     1  0  0  0  0  0999 V2000
   -9.6404   -6.0157   -4.8037 C   0  0  0  0  0  0  0  0  0  0  0  0
   -8.4823   -5.0162   -4.7773 C   0  0  0  0  0  0  0  0  0  0  0  0
   -8.2856   -4.5504   -3.4407 O   0  0  0  0  0  0  0  0  0  0  0  0
   -7.2873   -3.6497   -3.2419 C   0  0  0  0  0  0  0  0  0  0  0  0
   -6.5142   -3.2246   -4.3138 C   0  0  0  0  0  0  0  0  0  0  0  0
   -5.5003   -2.3111   -4.1153 C   0  0  0  0  0  0  0  0  0  0  0  0
   -5.2520   -1.8145   -2.8364 C   0  0  0  0  0  0  0  0  0  0  0  0
   -6.0265   -2.2473   -1.7615 C   0  0  0  0  0  0  0  0  0  0  0  0
   -7.0427   -3.1572   -1.9676 C   0  0  0  0  0  0  0  0  0  0  0  0
   -7.8843   -3.6213   -0.8069 C   0  0  0  0  0  0  0  0  0  0  0  0
   -7.4112   -2.9314    0.4742 C   0  0  0  0  0  0  0  0  0  0  0  0
   -9.3500   -3.2667   -1.0657 C   0  0  0  0  0  0  0  0  0  0  0  0
   -7.7462   -5.1371   -0.6507 C   0  0  0  0  0  0  0  0  0  0  0  0
   -4.1619   -0.8323   -2.6192 C   0  0  0  0  0  0  0  0  0  0  0  0
   -3.4628   -0.3316   -3.6802 C   0  0  0  0  0  0  0  0  0  0  0  0
   -2.3222    0.7610   -2.8427 S   0  0  0  0  0  0  0  0  0  0  0  0
   -2.8870    0.4434   -1.1772 C   0  0  0  0  0  0  0  0  0  0  0  0
   -3.8513   -0.4337   -1.3878 N   0  0  0  0  0  0  0  0  0  0  0  0
   -2.4300    0.9727    0.0189 N   0  0  0  0  0  0  0  0  0  0  0  0
   -1.3295    1.9397    0.0189 C   0  0  1  0  0  0  0  0  0  0  0  0
   -1.4000    2.5704   -0.8673 H   0  0  0  0  0  0  0  0  0  0  0  0
   -1.4165    2.8114    1.2733 C   0  0  1  0  0  0  0  0  0  0  0  0
   -0.6524    3.5874    1.2303 H   0  0  0  0  0  0  0  0  0  0  0  0
   -2.7997    3.4612    1.3479 C   0  0  0  0  0  0  0  0  0  0  0  0
   -1.2079    2.0011    2.4318 O   0  0  0  0  0  0  0  0  0  0  0  0
   -0.0143    1.2041    0.0087 C   0  0  0  0  0  0  0  0  0  0  0  0
    0.0021   -0.0041    0.0020 O   0  0  0  0  0  0  0  0  0  0  0  0
   -9.4064   -6.8601   -4.1554 H   0  0  0  0  0  0  0  0  0  0  0  0
  -10.5493   -5.5280   -4.4514 H   0  0  0  0  0  0  0  0  0  0  0  0
   -9.7904   -6.3710   -5.8232 H   0  0  0  0  0  0  0  0  0  0  0  0
   -8.7162   -4.1718   -5.4256 H   0  0  0  0  0  0  0  0  0  0  0  0
   -7.5733   -5.5039   -5.1296 H   0  0  0  0  0  0  0  0  0  0  0  0
   -6.7068   -3.6100   -5.3041 H   0  0  0  0  0  0  0  0  0  0  0  0
   -4.8990   -1.9811   -4.9495 H   0  0  0  0  0  0  0  0  0  0  0  0
   -5.8338   -1.8678   -0.7689 H   0  0  0  0  0  0  0  0  0  0  0  0
   -7.5096   -1.8516    0.3629 H   0  0  0  0  0  0  0  0  0  0  0  0
   -8.0200   -3.2672    1.3137 H   0  0  0  0  0  0  0  0  0  0  0  0
   -6.3671   -3.1841    0.6586 H   0  0  0  0  0  0  0  0  0  0  0  0
   -9.6870   -3.7582   -1.9783 H   0  0  0  0  0  0  0  0  0  0  0  0
   -9.9588   -3.6024   -0.2261 H   0  0  0  0  0  0  0  0  0  0  0  0
   -9.4484   -2.1869   -1.1769 H   0  0  0  0  0  0  0  0  0  0  0  0
   -6.7021   -5.3897   -0.4663 H   0  0  0  0  0  0  0  0  0  0  0  0
   -8.3550   -5.4728    0.1888 H   0  0  0  0  0  0  0  0  0  0  0  0
   -8.0833   -5.6286   -1.5634 H   0  0  0  0  0  0  0  0  0  0  0  0
   -3.5698   -0.5385   -4.7348 H   0  0  0  0  0  0  0  0  0  0  0  0
   -2.8387    0.7030    0.8562 H   0  0  0  0  0  0  0  0  0  0  0  0
   -3.5639    2.6851    1.3909 H   0  0  0  0  0  0  0  0  0  0  0  0
   -2.8617    4.0822    2.2415 H   0  0  0  0  0  0  0  0  0  0  0  0
   -2.9589    4.0792    0.4642 H   0  0  0  0  0  0  0  0  0  0  0  0
   -1.8529    1.2881    2.5344 H   0  0  0  0  0  0  0  0  0  0  0  0
    1.1389    1.8910    0.0013 O   0  5  0  0  0  0  0  0  0  0  0  0
  1  2  1  0  0  0  0
  1 28  1  0  0  0  0
  1 29  1  0  0  0  0
  1 30  1  0  0  0  0
  2  3  1  0  0  0  0
  2 31  1  0  0  0  0
  2 32  1  0  0  0  0
  3  4  1  0  0  0  0
  4  9  2  0  0  0  0
  4  5  1  0  0  0  0
  5  6  2  0  0  0  0
  5 33  1  0  0  0  0
  6  7  1  0  0  0  0
  6 34  1  0  0  0  0
  7  8  2  0  0  0  0
  7 14  1  0  0  0  0
  8  9  1  0  0  0  0
  8 35  1  0  0  0  0
  9 10  1  0  0  0  0
 10 11  1  0  0  0  0
 10 12  1  0  0  0  0
 10 13  1  0  0  0  0
 11 36  1  0  0  0  0
 11 37  1  0  0  0  0
 11 38  1  0  0  0  0
 12 39  1  0  0  0  0
 12 40  1  0  0  0  0
 12 41  1  0  0  0  0
 13 42  1  0  0  0  0
 13 43  1  0  0  0  0
 13 44  1  0  0  0  0
 14 18  1  0  0  0  0
 14 15  2  0  0  0  0
 15 16  1  0  0  0  0
 15 45  1  0  0  0  0
 16 17  1  0  0  0  0
 17 18  2  0  0  0  0
 17 19  1  0  0  0  0
 19 20  1  0  0  0  0
 19 46  1  0  0  0  0
 20 21  1  0  0  0  0
 20 22  1  0  0  0  0
 20 26  1  0  0  0  0
 22 23  1  0  0  0  0
 22 24  1  0  0  0  0
 22 25  1  0  0  0  0
 24 47  1  0  0  0  0
 24 48  1  0  0  0  0
 24 49  1  0  0  0  0
 25 50  1  0  0  0  0
 26 27  2  0  0  0  0
 26 51  1  0  0  0  0
M  CHG  1  51  -1
M  END
$$$$
ZINC03856767
  -OEChem-08230709463D

 51 52  0     1  0  0  0  0  0999 V2000
    0.6072   -9.9996   -4.8775 C   0  0  0  0  0  0  0  0  0  0  0  0
    0.6019   -8.4700   -4.8425 C   0  0  0  0  0  0  0  0  0  0  0  0
    0.3803   -8.0249   -3.5028 O   0  0  0  0  0  0  0  0  0  0  0  0
    0.3465   -6.6820   -3.2964 C   0  0  0  0  0  0  0  0  0  0  0  0
    0.5235   -5.8124   -4.3640 C   0  0  0  0  0  0  0  0  0  0  0  0
    0.4903   -4.4492   -4.1578 C   0  0  0  0  0  0  0  0  0  0  0  0
    0.2782   -3.9447   -2.8755 C   0  0  0  0  0  0  0  0  0  0  0  0
    0.1061   -4.8203   -1.8049 C   0  0  0  0  0  0  0  0  0  0  0  0
    0.1357   -6.1829   -2.0186 C   0  0  0  0  0  0  0  0  0  0  0  0
   -0.0560   -7.1304   -0.8626 C   0  0  0  0  0  0  0  0  0  0  0  0
   -0.2680   -6.3294    0.4236 C   0  0  0  0  0  0  0  0  0  0  0  0
   -1.2797   -8.0112   -1.1225 C   0  0  0  0  0  0  0  0  0  0  0  0
    1.1853   -8.0127   -0.7151 C   0  0  0  0  0  0  0  0  0  0  0  0
    0.2418   -2.4790   -2.6502 C   0  0  0  0  0  0  0  0  0  0  0  0
    0.3132   -1.6165   -3.7066 C   0  0  0  0  0  0  0  0  0  0  0  0
    0.2263   -0.0441   -2.8604 S   0  0  0  0  0  0  0  0  0  0  0  0
    0.1046   -0.6889   -1.1980 C   0  0  0  0  0  0  0  0  0  0  0  0
    0.1441   -1.9907   -1.4158 N   0  0  0  0  0  0  0  0  0  0  0  0
    0.0021   -0.0041    0.0020 N   0  0  0  0  0  0  0  0  0  0  0  0
   -0.0178    1.4608    0.0101 C   0  0  2  0  0  0  0  0  0  0  0  0
   -0.5450    1.8219   -0.8730 H   0  0  0  0  0  0  0  0  0  0  0  0
    1.4176    1.9904   -0.0008 C   0  0  1  0  0  0  0  0  0  0  0  0
    1.9448    1.6293    0.8823 H   0  0  0  0  0  0  0  0  0  0  0  0
    2.1337    1.4969   -1.2596 C   0  0  0  0  0  0  0  0  0  0  0  0
    1.3982    3.4192    0.0071 O   0  0  0  0  0  0  0  0  0  0  0  0
   -0.7232    1.9468    1.2500 C   0  0  0  0  0  0  0  0  0  0  0  0
   -1.1640    1.1512    2.0453 O   0  0  0  0  0  0  0  0  0  0  0  0
    1.4026  -10.3750   -4.2337 H   0  0  0  0  0  0  0  0  0  0  0  0
   -0.3535  -10.3744   -4.5243 H   0  0  0  0  0  0  0  0  0  0  0  0
    0.7762  -10.3391   -5.8994 H   0  0  0  0  0  0  0  0  0  0  0  0
   -0.1936   -8.0946   -5.4864 H   0  0  0  0  0  0  0  0  0  0  0  0
    1.5625   -8.0952   -5.1957 H   0  0  0  0  0  0  0  0  0  0  0  0
    0.6877   -6.2039   -5.3571 H   0  0  0  0  0  0  0  0  0  0  0  0
    0.6287   -3.7733   -4.9886 H   0  0  0  0  0  0  0  0  0  0  0  0
   -0.0539   -4.4326   -0.8097 H   0  0  0  0  0  0  0  0  0  0  0  0
   -1.1523   -5.7009    0.3186 H   0  0  0  0  0  0  0  0  0  0  0  0
   -0.4066   -7.0148    1.2598 H   0  0  0  0  0  0  0  0  0  0  0  0
    0.6038   -5.7020    0.6088 H   0  0  0  0  0  0  0  0  0  0  0  0
   -1.1287   -8.5818   -2.0388 H   0  0  0  0  0  0  0  0  0  0  0  0
   -1.4183   -8.6965   -0.2863 H   0  0  0  0  0  0  0  0  0  0  0  0
   -2.1640   -7.3826   -1.2275 H   0  0  0  0  0  0  0  0  0  0  0  0
    2.0571   -7.3852   -0.5300 H   0  0  0  0  0  0  0  0  0  0  0  0
    1.0467   -8.6980    0.1210 H   0  0  0  0  0  0  0  0  0  0  0  0
    1.3364   -8.5834   -1.6314 H   0  0  0  0  0  0  0  0  0  0  0  0
    0.3987   -1.8265   -4.7626 H   0  0  0  0  0  0  0  0  0  0  0  0
   -0.0566   -0.4945    0.8368 H   0  0  0  0  0  0  0  0  0  0  0  0
    1.6065    1.8580   -2.1427 H   0  0  0  0  0  0  0  0  0  0  0  0
    3.1563    1.8742   -1.2673 H   0  0  0  0  0  0  0  0  0  0  0  0
    2.1485    0.4071   -1.2656 H   0  0  0  0  0  0  0  0  0  0  0  0
    0.9585    3.8024    0.7784 H   0  0  0  0  0  0  0  0  0  0  0  0
   -0.8617    3.2635    1.4708 O   0  5  0  0  0  0  0  0  0  0  0  0
  1  2  1  0  0  0  0
  1 28  1  0  0  0  0
  1 29  1  0  0  0  0
  1 30  1  0  0  0  0
  2  3  1  0  0  0  0
  2 31  1  0  0  0  0
  2 32  1  0  0  0  0
  3  4  1  0  0  0  0
  4  9  2  0  0  0  0
  4  5  1  0  0  0  0
  5  6  2  0  0  0  0
  5 33  1  0  0  0  0
  6  7  1  0  0  0  0
  6 34  1  0  0  0  0
  7  8  2  0  0  0  0
  7 14  1  0  0  0  0
  8  9  1  0  0  0  0
  8 35  1  0  0  0  0
  9 10  1  0  0  0  0
 10 11  1  0  0  0  0
 10 12  1  0  0  0  0
 10 13  1  0  0  0  0
 11 36  1  0  0  0  0
 11 37  1  0  0  0  0
 11 38  1  0  0  0  0
 12 39  1  0  0  0  0
 12 40  1  0  0  0  0
 12 41  1  0  0  0  0
 13 42  1  0  0  0  0
 13 43  1  0  0  0  0
 13 44  1  0  0  0  0
 14 18  1  0  0  0  0
 14 15  2  0  0  0  0
 15 16  1  0  0  0  0
 15 45  1  0  0  0  0
 16 17  1  0  0  0  0
 17 18  2  0  0  0  0
 17 19  1  0  0  0  0
 19 20  1  0  0  0  0
 19 46  1  0  0  0  0
 20 21  1  0  0  0  0
 20 22  1  0  0  0  0
 20 26  1  0  0  0  0
 22 23  1  0  0  0  0
 22 24  1  0  0  0  0
 22 25  1  0  0  0  0
 24 47  1  0  0  0  0
 24 48  1  0  0  0  0
 24 49  1  0  0  0  0
 25 50  1  0  0  0  0
 26 27  2  0  0  0  0
 26 51  1  0  0  0  0
M  CHG  1  51  -1
M  END
$$$$
ZINC03856768
  -OEChem-08230709463D

 51 52  0     1  0  0  0  0  0999 V2000
   12.4108    5.9852    4.7358 C   0  0  0  0  0  0  0  0  0  0  0  0
   10.9542    5.5172    4.7205 C   0  0  0  0  0  0  0  0  0  0  0  0
   10.4389    5.6072    3.3906 O   0  0  0  0  0  0  0  0  0  0  0  0
    9.1480    5.2262    3.2020 C   0  0  0  0  0  0  0  0  0  0  0  0
    8.3947    4.7751    4.2774 C   0  0  0  0  0  0  0  0  0  0  0  0
    7.0847    4.3874    4.0893 C   0  0  0  0  0  0  0  0  0  0  0  0
    6.5168    4.4492    2.8175 C   0  0  0  0  0  0  0  0  0  0  0  0
    7.2773    4.8976    1.7390 C   0  0  0  0  0  0  0  0  0  0  0  0
    8.5857    5.2886    1.9347 C   0  0  0  0  0  0  0  0  0  0  0  0
    9.4070    5.7789    0.7701 C   0  0  0  0  0  0  0  0  0  0  0  0
    8.5572    5.7490   -0.5018 C   0  0  0  0  0  0  0  0  0  0  0  0
    9.8705    7.2117    1.0403 C   0  0  0  0  0  0  0  0  0  0  0  0
   10.6272    4.8737    0.5896 C   0  0  0  0  0  0  0  0  0  0  0  0
    5.1081    4.0330    2.6116 C   0  0  0  0  0  0  0  0  0  0  0  0
    4.3287    3.6846    3.6776 C   0  0  0  0  0  0  0  0  0  0  0  0
    2.7918    3.2913    2.8531 S   0  0  0  0  0  0  0  0  0  0  0  0
    3.3380    3.6279    1.1850 C   0  0  0  0  0  0  0  0  0  0  0  0
    4.5918    3.9905    1.3854 N   0  0  0  0  0  0  0  0  0  0  0  0
    2.6340    3.5287   -0.0041 N   0  0  0  0  0  0  0  0  0  0  0  0
    1.2350    3.0943    0.0069 C   0  0  1  0  0  0  0  0  0  0  0  0
    0.7441    3.4725    0.9036 H   0  0  0  0  0  0  0  0  0  0  0  0
    0.5222    3.6385   -1.2327 C   0  0  2  0  0  0  0  0  0  0  0  0
    0.6407    4.7213   -1.2739 H   0  0  0  0  0  0  0  0  0  0  0  0
   -0.9660    3.2909   -1.1591 C   0  0  0  0  0  0  0  0  0  0  0  0
    1.0909    3.0521   -2.4052 O   0  0  0  0  0  0  0  0  0  0  0  0
    1.1765    1.5884   -0.0006 C   0  0  0  0  0  0  0  0  0  0  0  0
    2.1986    0.9442   -0.0139 O   0  0  0  0  0  0  0  0  0  0  0  0
   13.0024    5.3533    4.0733 H   0  0  0  0  0  0  0  0  0  0  0  0
   12.4638    7.0191    4.3948 H   0  0  0  0  0  0  0  0  0  0  0  0
   12.8039    5.9165    5.7501 H   0  0  0  0  0  0  0  0  0  0  0  0
   10.3626    6.1490    5.3829 H   0  0  0  0  0  0  0  0  0  0  0  0
   10.9012    4.4832    5.0614 H   0  0  0  0  0  0  0  0  0  0  0  0
    8.8352    4.7275    5.2623 H   0  0  0  0  0  0  0  0  0  0  0  0
    6.4995    4.0359    4.9261 H   0  0  0  0  0  0  0  0  0  0  0  0
    6.8416    4.9424    0.7518 H   0  0  0  0  0  0  0  0  0  0  0  0
    7.6879    6.3939   -0.3731 H   0  0  0  0  0  0  0  0  0  0  0  0
    9.1512    6.1036   -1.3441 H   0  0  0  0  0  0  0  0  0  0  0  0
    8.2270    4.7282   -0.6942 H   0  0  0  0  0  0  0  0  0  0  0  0
   10.4759    7.2330    1.9464 H   0  0  0  0  0  0  0  0  0  0  0  0
   10.4645    7.5664    0.1980 H   0  0  0  0  0  0  0  0  0  0  0  0
    9.0012    7.8566    1.1689 H   0  0  0  0  0  0  0  0  0  0  0  0
   10.2970    3.8529    0.3971 H   0  0  0  0  0  0  0  0  0  0  0  0
   11.2213    5.2283   -0.2527 H   0  0  0  0  0  0  0  0  0  0  0  0
   11.2327    4.8949    1.4957 H   0  0  0  0  0  0  0  0  0  0  0  0
    4.5734    3.6549    4.7290 H   0  0  0  0  0  0  0  0  0  0  0  0
    3.0675    3.7470   -0.8440 H   0  0  0  0  0  0  0  0  0  0  0  0
   -1.3998    3.7382   -0.2648 H   0  0  0  0  0  0  0  0  0  0  0  0
   -1.4738    3.6786   -2.0422 H   0  0  0  0  0  0  0  0  0  0  0  0
   -1.0845    2.2081   -1.1178 H   0  0  0  0  0  0  0  0  0  0  0  0
    1.0212    2.0881   -2.4362 H   0  0  0  0  0  0  0  0  0  0  0  0
   -0.0110    0.9628    0.0073 O   0  5  0  0  0  0  0  0  0  0  0  0
  1  2  1  0  0  0  0
  1 28  1  0  0  0  0
  1 29  1  0  0  0  0
  1 30  1  0  0  0  0
  2  3  1  0  0  0  0
  2 31  1  0  0  0  0
  2 32  1  0  0  0  0
  3  4  1  0  0  0  0
  4  9  2  0  0  0  0
  4  5  1  0  0  0  0
  5  6  2  0  0  0  0
  5 33  1  0  0  0  0
  6  7  1  0  0  0  0
  6 34  1  0  0  0  0
  7  8  2  0  0  0  0
  7 14  1  0  0  0  0
  8  9  1  0  0  0  0
  8 35  1  0  0  0  0
  9 10  1  0  0  0  0
 10 11  1  0  0  0  0
 10 12  1  0  0  0  0
 10 13  1  0  0  0  0
 11 36  1  0  0  0  0
 11 37  1  0  0  0  0
 11 38  1  0  0  0  0
 12 39  1  0  0  0  0
 12 40  1  0  0  0  0
 12 41  1  0  0  0  0
 13 42  1  0  0  0  0
 13 43  1  0  0  0  0
 13 44  1  0  0  0  0
 14 18  1  0  0  0  0
 14 15  2  0  0  0  0
 15 16  1  0  0  0  0
 15 45  1  0  0  0  0
 16 17  1  0  0  0  0
 17 18  2  0  0  0  0
 17 19  1  0  0  0  0
 19 20  1  0  0  0  0
 19 46  1  0  0  0  0
 20 21  1  0  0  0  0
 20 22  1  0  0  0  0
 20 26  1  0  0  0  0
 22 23  1  0  0  0  0
 22 24  1  0  0  0  0
 22 25  1  0  0  0  0
 24 47  1  0  0  0  0
 24 48  1  0  0  0  0
 24 49  1  0  0  0  0
 25 50  1  0  0  0  0
 26 27  2  0  0  0  0
 26 51  1  0  0  0  0
M  CHG  1  51  -1
M  END
$$$$
ZINC03856769
  -OEChem-08230709463D

 51 52  0     1  0  0  0  0  0999 V2000
    1.0269    3.5349    0.0112 C   0  0  0  0  0  0  0  0  0  0  0  0
    1.2479    2.0209    0.0010 C   0  0  0  0  0  0  0  0  0  0  0  0
   -0.0164    1.3549    0.0095 O   0  0  0  0  0  0  0  0  0  0  0  0
    0.0021   -0.0041    0.0020 C   0  0  0  0  0  0  0  0  0  0  0  0
    1.2144   -0.6802   -0.0189 C   0  0  0  0  0  0  0  0  0  0  0  0
    1.2366   -2.0592   -0.0208 C   0  0  0  0  0  0  0  0  0  0  0  0
    0.0397   -2.7741   -0.0132 C   0  0  0  0  0  0  0  0  0  0  0  0
   -1.1758   -2.0922    0.0021 C   0  0  0  0  0  0  0  0  0  0  0  0
   -1.1912   -0.7128    0.0096 C   0  0  0  0  0  0  0  0  0  0  0  0
   -2.5049    0.0253    0.0266 C   0  0  0  0  0  0  0  0  0  0  0  0
   -3.6561   -0.9826    0.0321 C   0  0  0  0  0  0  0  0  0  0  0  0
   -2.5841    0.8967    1.2817 C   0  0  0  0  0  0  0  0  0  0  0  0
   -2.6084    0.9110   -1.2167 C   0  0  0  0  0  0  0  0  0  0  0  0
    0.0598   -4.2572   -0.0209 C   0  0  0  0  0  0  0  0  0  0  0  0
    1.2476   -4.9311   -0.0358 C   0  0  0  0  0  0  0  0  0  0  0  0
    0.6713   -6.6235   -0.0388 S   0  0  0  0  0  0  0  0  0  0  0  0
   -1.0796   -6.2657   -0.0200 C   0  0  0  0  0  0  0  0  0  0  0  0
   -1.0796   -4.9453   -0.0077 N   0  0  0  0  0  0  0  0  0  0  0  0
   -2.1529   -7.1419   -0.0144 N   0  0  0  0  0  0  0  0  0  0  0  0
   -1.9180   -8.5879   -0.0240 C   0  0  2  0  0  0  0  0  0  0  0  0
   -1.0344   -8.8085   -0.6229 H   0  0  0  0  0  0  0  0  0  0  0  0
   -3.1323   -9.2979   -0.6259 C   0  0  2  0  0  0  0  0  0  0  0  0
   -2.9576  -10.3737   -0.6330 H   0  0  0  0  0  0  0  0  0  0  0  0
   -3.3516   -8.8073   -2.0584 C   0  0  0  0  0  0  0  0  0  0  0  0
   -4.2907   -9.0086    0.1593 O   0  0  0  0  0  0  0  0  0  0  0  0
   -1.7020   -9.0711    1.3870 C   0  0  0  0  0  0  0  0  0  0  0  0
   -1.7403   -8.2879    2.3063 O   0  0  0  0  0  0  0  0  0  0  0  0
    1.9913    4.0429    0.0048 H   0  0  0  0  0  0  0  0  0  0  0  0
    0.4575    3.8249   -0.8718 H   0  0  0  0  0  0  0  0  0  0  0  0
    0.4745    3.8153    0.9081 H   0  0  0  0  0  0  0  0  0  0  0  0
    1.8173    1.7309    0.8840 H   0  0  0  0  0  0  0  0  0  0  0  0
    1.8003    1.7405   -0.8958 H   0  0  0  0  0  0  0  0  0  0  0  0
    2.1412   -0.1258   -0.0292 H   0  0  0  0  0  0  0  0  0  0  0  0
    2.1800   -2.5846   -0.0326 H   0  0  0  0  0  0  0  0  0  0  0  0
   -2.1047   -2.6432    0.0076 H   0  0  0  0  0  0  0  0  0  0  0  0
   -3.5823   -1.6136    0.9178 H   0  0  0  0  0  0  0  0  0  0  0  0
   -4.6063   -0.4487    0.0444 H   0  0  0  0  0  0  0  0  0  0  0  0
   -3.5997   -1.6034   -0.8620 H   0  0  0  0  0  0  0  0  0  0  0  0
   -1.7640    1.6147    1.2778 H   0  0  0  0  0  0  0  0  0  0  0  0
   -3.5343    1.4306    1.2940 H   0  0  0  0  0  0  0  0  0  0  0  0
   -2.5104    0.2657    2.1674 H   0  0  0  0  0  0  0  0  0  0  0  0
   -2.5520    0.2901   -2.1108 H   0  0  0  0  0  0  0  0  0  0  0  0
   -3.5587    1.4448   -1.2043 H   0  0  0  0  0  0  0  0  0  0  0  0
   -1.7883    1.6290   -1.2205 H   0  0  0  0  0  0  0  0  0  0  0  0
    2.2570   -4.5472   -0.0440 H   0  0  0  0  0  0  0  0  0  0  0  0
   -3.0597   -6.7979   -0.0042 H   0  0  0  0  0  0  0  0  0  0  0  0
   -4.2168   -9.3131   -2.4872 H   0  0  0  0  0  0  0  0  0  0  0  0
   -3.5264   -7.7314   -2.0513 H   0  0  0  0  0  0  0  0  0  0  0  0
   -2.4680   -9.0279   -2.6573 H   0  0  0  0  0  0  0  0  0  0  0  0
   -5.1001   -9.4270   -0.1648 H   0  0  0  0  0  0  0  0  0  0  0  0
   -1.4670  -10.3715    1.6226 O   0  5  0  0  0  0  0  0  0  0  0  0
  1  2  1  0  0  0  0
  1 28  1  0  0  0  0
  1 29  1  0  0  0  0
  1 30  1  0  0  0  0
  2  3  1  0  0  0  0
  2 31  1  0  0  0  0
  2 32  1  0  0  0  0
  3  4  1  0  0  0  0
  4  9  2  0  0  0  0
  4  5  1  0  0  0  0
  5  6  2  0  0  0  0
  5 33  1  0  0  0  0
  6  7  1  0  0  0  0
  6 34  1  0  0  0  0
  7  8  2  0  0  0  0
  7 14  1  0  0  0  0
  8  9  1  0  0  0  0
  8 35  1  0  0  0  0
  9 10  1  0  0  0  0
 10 11  1  0  0  0  0
 10 12  1  0  0  0  0
 10 13  1  0  0  0  0
 11 36  1  0  0  0  0
 11 37  1  0  0  0  0
 11 38  1  0  0  0  0
 12 39  1  0  0  0  0
 12 40  1  0  0  0  0
 12 41  1  0  0  0  0
 13 42  1  0  0  0  0
 13 43  1  0  0  0  0
 13 44  1  0  0  0  0
 14 18  1  0  0  0  0
 14 15  2  0  0  0  0
 15 16  1  0  0  0  0
 15 45  1  0  0  0  0
 16 17  1  0  0  0  0
 17 18  2  0  0  0  0
 17 19  1  0  0  0  0
 19 20  1  0  0  0  0
 19 46  1  0  0  0  0
 20 21  1  0  0  0  0
 20 22  1  0  0  0  0
 20 26  1  0  0  0  0
 22 23  1  0  0  0  0
 22 24  1  0  0  0  0
 22 25  1  0  0  0  0
 24 47  1  0  0  0  0
 24 48  1  0  0  0  0
 24 49  1  0  0  0  0
 25 50  1  0  0  0  0
 26 27  2  0  0  0  0
 26 51  1  0  0  0  0
M  CHG  1  51  -1
M  END
$$$$
ZINC03856778
  -OEChem-08230709463D

 54 56  0     1  0  0  0  0  0999 V2000
   -4.9664    8.1995   -9.8907 C   0  0  0  0  0  0  0  0  0  0  0  0
   -3.9651    7.4229   -9.0332 C   0  0  0  0  0  0  0  0  0  0  0  0
   -2.8606    8.2689   -8.7069 O   0  0  0  0  0  0  0  0  0  0  0  0
   -1.8740    7.7287   -7.9439 C   0  0  0  0  0  0  0  0  0  0  0  0
   -0.7999    7.0914   -8.5502 C   0  0  0  0  0  0  0  0  0  0  0  0
    0.2026    6.5419   -7.7788 C   0  0  0  0  0  0  0  0  0  0  0  0
    0.1366    6.6270   -6.3888 C   0  0  0  0  0  0  0  0  0  0  0  0
   -0.9457    7.2629   -5.7831 C   0  0  0  0  0  0  0  0  0  0  0  0
   -1.9426    7.8151   -6.5605 C   0  0  0  0  0  0  0  0  0  0  0  0
   -3.1104    8.5078   -5.9066 C   0  0  0  0  0  0  0  0  0  0  0  0
   -1.0242    7.3516   -4.2808 C   0  0  0  0  0  0  0  0  0  0  0  0
    1.2129    6.0366   -5.5561 C   0  0  0  0  0  0  0  0  0  0  0  0
    2.2018    5.2922   -6.1331 C   0  0  0  0  0  0  0  0  0  0  0  0
    3.1754    4.8602   -4.6971 S   0  0  0  0  0  0  0  0  0  0  0  0
    2.1750    5.7079   -3.4828 C   0  0  0  0  0  0  0  0  0  0  0  0
    1.2218    6.2224   -4.2381 N   0  0  0  0  0  0  0  0  0  0  0  0
    2.3498    5.7966   -2.1113 N   0  0  0  0  0  0  0  0  0  0  0  0
    3.4900    5.1335   -1.4738 C   0  0  2  0  0  0  0  0  0  0  0  0
    3.7045    4.1998   -1.9936 H   0  0  0  0  0  0  0  0  0  0  0  0
    3.1550    4.8373   -0.0106 C   0  0  0  0  0  0  0  0  0  0  0  0
    2.0267    3.8405    0.0545 C   0  0  0  0  0  0  0  0  0  0  0  0
    2.3018    2.4861    0.0842 C   0  0  0  0  0  0  0  0  0  0  0  0
    1.2668    1.5717    0.1439 C   0  0  0  0  0  0  0  0  0  0  0  0
   -0.0435    2.0116    0.1686 C   0  0  0  0  0  0  0  0  0  0  0  0
   -0.3185    3.3661    0.1442 C   0  0  0  0  0  0  0  0  0  0  0  0
    0.7166    4.2805    0.0849 C   0  0  0  0  0  0  0  0  0  0  0  0
    4.6965    6.0341   -1.5405 C   0  0  0  0  0  0  0  0  0  0  0  0
    4.6125    7.1186   -2.0665 O   0  0  0  0  0  0  0  0  0  0  0  0
   -0.7296    6.9995  -10.0527 C   0  0  0  0  0  0  0  0  0  0  0  0
   -5.3244    9.0665   -9.3356 H   0  0  0  0  0  0  0  0  0  0  0  0
   -4.4792    8.5309  -10.8077 H   0  0  0  0  0  0  0  0  0  0  0  0
   -5.8089    7.5542  -10.1396 H   0  0  0  0  0  0  0  0  0  0  0  0
   -3.6071    6.5558   -9.5883 H   0  0  0  0  0  0  0  0  0  0  0  0
   -4.4522    7.0914   -8.1162 H   0  0  0  0  0  0  0  0  0  0  0  0
    1.0378    6.0460   -8.2510 H   0  0  0  0  0  0  0  0  0  0  0  0
   -3.9034    7.7840   -5.7187 H   0  0  0  0  0  0  0  0  0  0  0  0
   -2.7894    8.9483   -4.9626 H   0  0  0  0  0  0  0  0  0  0  0  0
   -3.4829    9.2921   -6.5655 H   0  0  0  0  0  0  0  0  0  0  0  0
   -0.4342    8.2007   -3.9357 H   0  0  0  0  0  0  0  0  0  0  0  0
   -2.0630    7.4842   -3.9784 H   0  0  0  0  0  0  0  0  0  0  0  0
   -0.6322    6.4343   -3.8416 H   0  0  0  0  0  0  0  0  0  0  0  0
    2.3541    5.0355   -7.1710 H   0  0  0  0  0  0  0  0  0  0  0  0
    1.7173    6.2978   -1.5731 H   0  0  0  0  0  0  0  0  0  0  0  0
    2.8545    5.7593    0.4872 H   0  0  0  0  0  0  0  0  0  0  0  0
    4.0329    4.4253    0.4870 H   0  0  0  0  0  0  0  0  0  0  0  0
    3.3253    2.1423    0.0604 H   0  0  0  0  0  0  0  0  0  0  0  0
    1.4817    0.5136    0.1668 H   0  0  0  0  0  0  0  0  0  0  0  0
   -0.8523    1.2970    0.2107 H   0  0  0  0  0  0  0  0  0  0  0  0
   -1.3420    3.7099    0.1676 H   0  0  0  0  0  0  0  0  0  0  0  0
    0.5016    5.3386    0.0621 H   0  0  0  0  0  0  0  0  0  0  0  0
   -1.2243    6.0867  -10.3844 H   0  0  0  0  0  0  0  0  0  0  0  0
   -1.2275    7.8633  -10.4933 H   0  0  0  0  0  0  0  0  0  0  0  0
    0.3139    6.9821  -10.3672 H   0  0  0  0  0  0  0  0  0  0  0  0
    5.8644    5.6315   -1.0155 O   0  5  0  0  0  0  0  0  0  0  0  0
  1  2  1  0  0  0  0
  1 30  1  0  0  0  0
  1 31  1  0  0  0  0
  1 32  1  0  0  0  0
  2  3  1  0  0  0  0
  2 33  1  0  0  0  0
  2 34  1  0  0  0  0
  3  4  1  0  0  0  0
  4  9  2  0  0  0  0
  4  5  1  0  0  0  0
  5  6  2  0  0  0  0
  5 29  1  0  0  0  0
  6  7  1  0  0  0  0
  6 35  1  0  0  0  0
  7  8  2  0  0  0  0
  7 12  1  0  0  0  0
  8  9  1  0  0  0  0
  8 11  1  0  0  0  0
  9 10  1  0  0  0  0
 10 36  1  0  0  0  0
 10 37  1  0  0  0  0
 10 38  1  0  0  0  0
 11 39  1  0  0  0  0
 11 40  1  0  0  0  0
 11 41  1  0  0  0  0
 12 16  1  0  0  0  0
 12 13  2  0  0  0  0
 13 14  1  0  0  0  0
 13 42  1  0  0  0  0
 14 15  1  0  0  0  0
 15 16  2  0  0  0  0
 15 17  1  0  0  0  0
 17 18  1  0  0  0  0
 17 43  1  0  0  0  0
 18 19  1  0  0  0  0
 18 20  1  0  0  0  0
 18 27  1  0  0  0  0
 20 21  1  0  0  0  0
 20 44  1  0  0  0  0
 20 45  1  0  0  0  0
 21 26  2  0  0  0  0
 21 22  1  0  0  0  0
 22 23  2  0  0  0  0
 22 46  1  0  0  0  0
 23 24  1  0  0  0  0
 23 47  1  0  0  0  0
 24 25  2  0  0  0  0
 24 48  1  0  0  0  0
 25 26  1  0  0  0  0
 25 49  1  0  0  0  0
 26 50  1  0  0  0  0
 27 28  2  0  0  0  0
 27 54  1  0  0  0  0
 29 51  1  0  0  0  0
 29 52  1  0  0  0  0
 29 53  1  0  0  0  0
M  CHG  1  54  -1
M  END
$$$$
ZINC03856779
  -OEChem-08230709463D

 53 54  0     1  0  0  0  0  0999 V2000
    1.2579    0.5772    0.4827 C   0  0  0  0  0  0  0  0  0  0  0  0
    1.1564    2.1010    0.5762 C   0  0  0  0  0  0  0  0  0  0  0  0
    0.2105    2.4801    1.7175 C   0  0  1  0  0  0  0  0  0  0  0  0
   -0.7513    1.9887    1.5706 H   0  0  0  0  0  0  0  0  0  0  0  0
    0.8140    2.0321    3.0501 C   0  0  0  0  0  0  0  0  0  0  0  0
    0.0112    3.9970    1.7321 C   0  0  2  0  0  0  0  0  0  0  0  0
   -0.4187    4.3162    0.7827 H   0  0  0  0  0  0  0  0  0  0  0  0
    1.3410    4.6764    1.9351 C   0  0  0  0  0  0  0  0  0  0  0  0
    1.5143    5.3905    2.8942 O   0  0  0  0  0  0  0  0  0  0  0  0
   -0.8945    4.3600    2.8249 N   0  0  0  0  0  0  0  0  0  0  0  0
   -1.6318    5.5308    2.7536 C   0  0  0  0  0  0  0  0  0  0  0  0
   -2.4961    6.0273    3.6197 N   0  0  0  0  0  0  0  0  0  0  0  0
   -3.1178    7.1810    3.3867 C   0  0  0  0  0  0  0  0  0  0  0  0
   -2.8632    7.8553    2.2267 C   0  0  0  0  0  0  0  0  0  0  0  0
   -1.6707    6.7650    1.4616 S   0  0  0  0  0  0  0  0  0  0  0  0
   -4.0816    7.7256    4.3739 C   0  0  0  0  0  0  0  0  0  0  0  0
   -4.6296    8.9941    4.1888 C   0  0  0  0  0  0  0  0  0  0  0  0
   -5.5258    9.4974    5.1083 C   0  0  0  0  0  0  0  0  0  0  0  0
   -5.8825    8.7423    6.2173 C   0  0  0  0  0  0  0  0  0  0  0  0
   -5.3388    7.4791    6.4044 C   0  0  0  0  0  0  0  0  0  0  0  0
   -4.4459    6.9678    5.4856 C   0  0  0  0  0  0  0  0  0  0  0  0
   -3.8608    5.5936    5.6863 C   0  0  0  0  0  0  0  0  0  0  0  0
   -5.7289    6.6628    7.6097 C   0  0  0  0  0  0  0  0  0  0  0  0
   -6.7663    9.2409    7.1214 O   0  0  0  0  0  0  0  0  0  0  0  0
   -8.1504    8.9668    6.8948 C   0  0  0  0  0  0  0  0  0  0  0  0
   -8.9853    9.6039    8.0075 C   0  0  0  0  0  0  0  0  0  0  0  0
   -6.1189   10.8683    4.9088 C   0  0  0  0  0  0  0  0  0  0  0  0
    1.6440    0.1805    1.4216 H   0  0  0  0  0  0  0  0  0  0  0  0
    0.2701    0.1585    0.2902 H   0  0  0  0  0  0  0  0  0  0  0  0
    1.9317    0.3072   -0.3304 H   0  0  0  0  0  0  0  0  0  0  0  0
    2.1442    2.5198    0.7687 H   0  0  0  0  0  0  0  0  0  0  0  0
    0.7703    2.4977   -0.3627 H   0  0  0  0  0  0  0  0  0  0  0  0
    0.1401    2.3021    3.8632 H   0  0  0  0  0  0  0  0  0  0  0  0
    0.9560    0.9514    3.0397 H   0  0  0  0  0  0  0  0  0  0  0  0
    1.7758    2.5235    3.1970 H   0  0  0  0  0  0  0  0  0  0  0  0
   -0.9780    3.7806    3.5984 H   0  0  0  0  0  0  0  0  0  0  0  0
   -3.2700    8.7900    1.8699 H   0  0  0  0  0  0  0  0  0  0  0  0
   -4.3527    9.5819    3.3261 H   0  0  0  0  0  0  0  0  0  0  0  0
   -2.8851    5.6804    6.1644 H   0  0  0  0  0  0  0  0  0  0  0  0
   -4.5246    5.0051    6.3196 H   0  0  0  0  0  0  0  0  0  0  0  0
   -3.7495    5.1014    4.7202 H   0  0  0  0  0  0  0  0  0  0  0  0
   -6.5997    6.0530    7.3692 H   0  0  0  0  0  0  0  0  0  0  0  0
   -4.8993    6.0154    7.8940 H   0  0  0  0  0  0  0  0  0  0  0  0
   -5.9697    7.3296    8.4377 H   0  0  0  0  0  0  0  0  0  0  0  0
   -8.4502    9.3819    5.9326 H   0  0  0  0  0  0  0  0  0  0  0  0
   -8.3115    7.8888    6.8916 H   0  0  0  0  0  0  0  0  0  0  0  0
   -8.6855    9.1888    8.9697 H   0  0  0  0  0  0  0  0  0  0  0  0
   -8.8241   10.6820    8.0107 H   0  0  0  0  0  0  0  0  0  0  0  0
  -10.0410    9.3949    7.8346 H   0  0  0  0  0  0  0  0  0  0  0  0
   -7.0387   10.7855    4.3298 H   0  0  0  0  0  0  0  0  0  0  0  0
   -6.3391   11.3137    5.8790 H   0  0  0  0  0  0  0  0  0  0  0  0
   -5.4078   11.4974    4.3733 H   0  0  0  0  0  0  0  0  0  0  0  0
    2.3328    4.4882    1.0505 O   0  5  0  0  0  0  0  0  0  0  0  0
  1  2  1  0  0  0  0
  1 28  1  0  0  0  0
  1 29  1  0  0  0  0
  1 30  1  0  0  0  0
  2  3  1  0  0  0  0
  2 31  1  0  0  0  0
  2 32  1  0  0  0  0
  3  4  1  0  0  0  0
  3  5  1  0  0  0  0
  3  6  1  0  0  0  0
  5 33  1  0  0  0  0
  5 34  1  0  0  0  0
  5 35  1  0  0  0  0
  6  7  1  0  0  0  0
  6  8  1  0  0  0  0
  6 10  1  0  0  0  0
  8  9  2  0  0  0  0
  8 53  1  0  0  0  0
 10 11  1  0  0  0  0
 10 36  1  0  0  0  0
 11 15  1  0  0  0  0
 11 12  2  0  0  0  0
 12 13  1  0  0  0  0
 13 14  2  0  0  0  0
 13 16  1  0  0  0  0
 14 15  1  0  0  0  0
 14 37  1  0  0  0  0
 16 21  2  0  0  0  0
 16 17  1  0  0  0  0
 17 18  2  0  0  0  0
 17 38  1  0  0  0  0
 18 19  1  0  0  0  0
 18 27  1  0  0  0  0
 19 20  2  0  0  0  0
 19 24  1  0  0  0  0
 20 21  1  0  0  0  0
 20 23  1  0  0  0  0
 21 22  1  0  0  0  0
 22 39  1  0  0  0  0
 22 40  1  0  0  0  0
 22 41  1  0  0  0  0
 23 42  1  0  0  0  0
 23 43  1  0  0  0  0
 23 44  1  0  0  0  0
 24 25  1  0  0  0  0
 25 26  1  0  0  0  0
 25 45  1  0  0  0  0
 25 46  1  0  0  0  0
 26 47  1  0  0  0  0
 26 48  1  0  0  0  0
 26 49  1  0  0  0  0
 27 50  1  0  0  0  0
 27 51  1  0  0  0  0
 27 52  1  0  0  0  0
M  CHG  1  53  -1
M  END
$$$$
ZINC03856796
  -OEChem-08230709463D

 51 52  0     1  0  0  0  0  0999 V2000
    2.0430   -1.9138    7.6321 C   0  0  0  0  0  0  0  0  0  0  0  0
    1.5529   -1.5000    6.2430 C   0  0  0  0  0  0  0  0  0  0  0  0
    1.5373    0.0266    6.1416 C   0  0  1  0  0  0  0  0  0  0  0  0
    0.9390    0.4386    6.9542 H   0  0  0  0  0  0  0  0  0  0  0  0
    2.9682    0.5590    6.2411 C   0  0  0  0  0  0  0  0  0  0  0  0
    0.9397    0.4361    4.8202 C   0  0  0  0  0  0  0  0  0  0  0  0
    1.5327    0.0268    3.6389 C   0  0  0  0  0  0  0  0  0  0  0  0
    0.9891    0.3935    2.4219 C   0  0  0  0  0  0  0  0  0  0  0  0
   -0.1488    1.1821    2.3795 C   0  0  0  0  0  0  0  0  0  0  0  0
   -0.7507    1.5970    3.5713 C   0  0  0  0  0  0  0  0  0  0  0  0
   -0.1976    1.2179    4.7924 C   0  0  0  0  0  0  0  0  0  0  0  0
   -1.9728    2.4364    3.5358 C   0  0  0  0  0  0  0  0  0  0  0  0
   -2.5670    2.8397    4.6976 C   0  0  0  0  0  0  0  0  0  0  0  0
   -3.9410    3.7882    4.0581 S   0  0  0  0  0  0  0  0  0  0  0  0
   -3.5931    3.5469    2.3218 C   0  0  0  0  0  0  0  0  0  0  0  0
   -2.5052    2.8002    2.3713 N   0  0  0  0  0  0  0  0  0  0  0  0
   -4.2823    4.0188    1.2164 N   0  0  0  0  0  0  0  0  0  0  0  0
   -5.4808    4.8417    1.3968 C   0  0  2  0  0  0  0  0  0  0  0  0
   -6.0258    4.5017    2.2775 H   0  0  0  0  0  0  0  0  0  0  0  0
   -6.3764    4.7158    0.1628 C   0  0  1  0  0  0  0  0  0  0  0  0
   -6.5951    3.6640   -0.0217 H   0  0  0  0  0  0  0  0  0  0  0  0
   -7.6836    5.4741    0.4017 C   0  0  0  0  0  0  0  0  0  0  0  0
   -5.7054    5.2688   -0.9712 O   0  0  0  0  0  0  0  0  0  0  0  0
   -5.0781    6.2823    1.5804 C   0  0  0  0  0  0  0  0  0  0  0  0
   -3.9099    6.5900    1.5623 O   0  0  0  0  0  0  0  0  0  0  0  0
   -0.6816    1.5467    1.1837 O   0  0  0  0  0  0  0  0  0  0  0  0
   -0.0127    1.0858    0.0080 C   0  0  0  0  0  0  0  0  0  0  0  0
   -0.7527    1.5927   -1.2315 C   0  0  0  0  0  0  0  0  0  0  0  0
    2.0542   -3.0014    7.7043 H   0  0  0  0  0  0  0  0  0  0  0  0
    3.0502   -1.5288    7.7916 H   0  0  0  0  0  0  0  0  0  0  0  0
    1.3740   -1.5061    8.3898 H   0  0  0  0  0  0  0  0  0  0  0  0
    0.5457   -1.8850    6.0835 H   0  0  0  0  0  0  0  0  0  0  0  0
    2.2220   -1.9076    5.4853 H   0  0  0  0  0  0  0  0  0  0  0  0
    2.9571    1.6465    6.1689 H   0  0  0  0  0  0  0  0  0  0  0  0
    3.4005    0.2627    7.1969 H   0  0  0  0  0  0  0  0  0  0  0  0
    3.5665    0.1469    5.4285 H   0  0  0  0  0  0  0  0  0  0  0  0
    2.4222   -0.5850    3.6679 H   0  0  0  0  0  0  0  0  0  0  0  0
    1.4541    0.0675    1.5033 H   0  0  0  0  0  0  0  0  0  0  0  0
   -0.6582    1.5350    5.7164 H   0  0  0  0  0  0  0  0  0  0  0  0
   -2.2840    2.6414    5.7208 H   0  0  0  0  0  0  0  0  0  0  0  0
   -3.9712    3.8044    0.3230 H   0  0  0  0  0  0  0  0  0  0  0  0
   -7.4649    6.5259    0.5862 H   0  0  0  0  0  0  0  0  0  0  0  0
   -8.3216    5.3844   -0.4774 H   0  0  0  0  0  0  0  0  0  0  0  0
   -8.1954    5.0523    1.2667 H   0  0  0  0  0  0  0  0  0  0  0  0
   -5.4794    6.2043   -0.8769 H   0  0  0  0  0  0  0  0  0  0  0  0
    0.0021   -0.0041    0.0020 H   0  0  0  0  0  0  0  0  0  0  0  0
    1.0099    1.4631    0.0003 H   0  0  0  0  0  0  0  0  0  0  0  0
   -0.2425    1.2411   -2.1283 H   0  0  0  0  0  0  0  0  0  0  0  0
   -1.7753    1.2154   -1.2238 H   0  0  0  0  0  0  0  0  0  0  0  0
   -0.7675    2.6825   -1.2255 H   0  0  0  0  0  0  0  0  0  0  0  0
   -6.0174    7.2235    1.7639 O   0  5  0  0  0  0  0  0  0  0  0  0
  1  2  1  0  0  0  0
  1 29  1  0  0  0  0
  1 30  1  0  0  0  0
  1 31  1  0  0  0  0
  2  3  1  0  0  0  0
  2 32  1  0  0  0  0
  2 33  1  0  0  0  0
  3  4  1  0  0  0  0
  3  5  1  0  0  0  0
  3  6  1  0  0  0  0
  5 34  1  0  0  0  0
  5 35  1  0  0  0  0
  5 36  1  0  0  0  0
  6 11  2  0  0  0  0
  6  7  1  0  0  0  0
  7  8  2  0  0  0  0
  7 37  1  0  0  0  0
  8  9  1  0  0  0  0
  8 38  1  0  0  0  0
  9 10  2  0  0  0  0
  9 26  1  0  0  0  0
 10 11  1  0  0  0  0
 10 12  1  0  0  0  0
 11 39  1  0  0  0  0
 12 16  1  0  0  0  0
 12 13  2  0  0  0  0
 13 14  1  0  0  0  0
 13 40  1  0  0  0  0
 14 15  1  0  0  0  0
 15 16  2  0  0  0  0
 15 17  1  0  0  0  0
 17 18  1  0  0  0  0
 17 41  1  0  0  0  0
 18 19  1  0  0  0  0
 18 20  1  0  0  0  0
 18 24  1  0  0  0  0
 20 21  1  0  0  0  0
 20 22  1  0  0  0  0
 20 23  1  0  0  0  0
 22 42  1  0  0  0  0
 22 43  1  0  0  0  0
 22 44  1  0  0  0  0
 23 45  1  0  0  0  0
 24 25  2  0  0  0  0
 24 51  1  0  0  0  0
 26 27  1  0  0  0  0
 27 28  1  0  0  0  0
 27 46  1  0  0  0  0
 27 47  1  0  0  0  0
 28 48  1  0  0  0  0
 28 49  1  0  0  0  0
 28 50  1  0  0  0  0
M  CHG  1  51  -1
M  END
$$$$
ZINC03856797
  -OEChem-08230709463D

 53 54  0     1  0  0  0  0  0999 V2000
    8.1296   -2.4116   -1.1728 C   0  0  0  0  0  0  0  0  0  0  0  0
    6.6142   -2.2035   -1.2073 C   0  0  0  0  0  0  0  0  0  0  0  0
    5.9664   -2.9816   -0.0601 C   0  0  1  0  0  0  0  0  0  0  0  0
    6.2628   -4.0289   -0.1185 H   0  0  0  0  0  0  0  0  0  0  0  0
    6.4251   -2.3955    1.2766 C   0  0  0  0  0  0  0  0  0  0  0  0
    4.4668   -2.8772   -0.1663 C   0  0  0  0  0  0  0  0  0  0  0  0
    3.8574   -1.6404   -0.1229 C   0  0  0  0  0  0  0  0  0  0  0  0
    2.4700   -1.5451   -0.2163 C   0  0  0  0  0  0  0  0  0  0  0  0
    1.7033   -2.7001   -0.3639 C   0  0  0  0  0  0  0  0  0  0  0  0
    2.3190   -3.9332   -0.4118 C   0  0  0  0  0  0  0  0  0  0  0  0
    3.7007   -4.0251   -0.3133 C   0  0  0  0  0  0  0  0  0  0  0  0
    4.3046   -5.2418   -0.3613 O   0  0  0  0  0  0  0  0  0  0  0  0
    3.4562   -6.3815   -0.5144 C   0  0  0  0  0  0  0  0  0  0  0  0
    1.8111   -0.2172   -0.1648 C   0  0  0  0  0  0  0  0  0  0  0  0
    0.4487   -0.1228   -0.1589 C   0  0  0  0  0  0  0  0  0  0  0  0
    0.2373    1.6513   -0.0920 S   0  0  0  0  0  0  0  0  0  0  0  0
    1.9710    2.0848   -0.0789 C   0  0  0  0  0  0  0  0  0  0  0  0
    2.5415    0.8949   -0.1245 N   0  0  0  0  0  0  0  0  0  0  0  0
    2.5605    3.3379   -0.0334 N   0  0  0  0  0  0  0  0  0  0  0  0
    1.7239    4.5396    0.0132 C   0  0  1  0  0  0  0  0  0  0  0  0
    0.8266    4.3353    0.5973 H   0  0  0  0  0  0  0  0  0  0  0  0
    2.5072    5.6814    0.6642 C   0  0  0  0  0  0  0  0  0  0  0  0
    2.8323    5.3152    2.1137 C   0  0  0  0  0  0  0  0  0  0  0  0
    3.7381    6.3889    2.7201 C   0  0  0  0  0  0  0  0  0  0  0  0
    1.5354    5.2269    2.9207 C   0  0  0  0  0  0  0  0  0  0  0  0
    1.3325    4.9338   -1.3877 C   0  0  0  0  0  0  0  0  0  0  0  0
    1.7132    4.2781   -2.3284 O   0  0  0  0  0  0  0  0  0  0  0  0
    8.3533   -3.4728   -1.2817 H   0  0  0  0  0  0  0  0  0  0  0  0
    8.5911   -1.8573   -1.9901 H   0  0  0  0  0  0  0  0  0  0  0  0
    8.5241   -2.0528   -0.2221 H   0  0  0  0  0  0  0  0  0  0  0  0
    6.2198   -2.5623   -2.1580 H   0  0  0  0  0  0  0  0  0  0  0  0
    6.3906   -1.1423   -1.0984 H   0  0  0  0  0  0  0  0  0  0  0  0
    6.1288   -1.3481    1.3350 H   0  0  0  0  0  0  0  0  0  0  0  0
    5.9636   -2.9497    2.0939 H   0  0  0  0  0  0  0  0  0  0  0  0
    7.5098   -2.4709    1.3534 H   0  0  0  0  0  0  0  0  0  0  0  0
    4.4544   -0.7471   -0.0130 H   0  0  0  0  0  0  0  0  0  0  0  0
    0.6284   -2.6293   -0.4410 H   0  0  0  0  0  0  0  0  0  0  0  0
    1.7256   -4.8284   -0.5258 H   0  0  0  0  0  0  0  0  0  0  0  0
    2.7612   -6.4324    0.3237 H   0  0  0  0  0  0  0  0  0  0  0  0
    2.8965   -6.2953   -1.4458 H   0  0  0  0  0  0  0  0  0  0  0  0
    4.0638   -7.2862   -0.5380 H   0  0  0  0  0  0  0  0  0  0  0  0
   -0.2960   -0.9045   -0.1868 H   0  0  0  0  0  0  0  0  0  0  0  0
    3.5270    3.4194   -0.0323 H   0  0  0  0  0  0  0  0  0  0  0  0
    3.4339    5.8460    0.1144 H   0  0  0  0  0  0  0  0  0  0  0  0
    1.9069    6.5910    0.6451 H   0  0  0  0  0  0  0  0  0  0  0  0
    3.3426    4.3524    2.1396 H   0  0  0  0  0  0  0  0  0  0  0  0
    3.2481    7.3600    2.6494 H   0  0  0  0  0  0  0  0  0  0  0  0
    3.9295    6.1539    3.7671 H   0  0  0  0  0  0  0  0  0  0  0  0
    4.6820    6.4178    2.1758 H   0  0  0  0  0  0  0  0  0  0  0  0
    0.8901    4.4620    2.4887 H   0  0  0  0  0  0  0  0  0  0  0  0
    1.7671    4.9660    3.9533 H   0  0  0  0  0  0  0  0  0  0  0  0
    1.0251    6.1897    2.8948 H   0  0  0  0  0  0  0  0  0  0  0  0
    0.5608    6.0133   -1.5903 O   0  5  0  0  0  0  0  0  0  0  0  0
  1  2  1  0  0  0  0
  1 28  1  0  0  0  0
  1 29  1  0  0  0  0
  1 30  1  0  0  0  0
  2  3  1  0  0  0  0
  2 31  1  0  0  0  0
  2 32  1  0  0  0  0
  3  4  1  0  0  0  0
  3  5  1  0  0  0  0
  3  6  1  0  0  0  0
  5 33  1  0  0  0  0
  5 34  1  0  0  0  0
  5 35  1  0  0  0  0
  6 11  2  0  0  0  0
  6  7  1  0  0  0  0
  7  8  2  0  0  0  0
  7 36  1  0  0  0  0
  8  9  1  0  0  0  0
  8 14  1  0  0  0  0
  9 10  2  0  0  0  0
  9 37  1  0  0  0  0
 10 11  1  0  0  0  0
 10 38  1  0  0  0  0
 11 12  1  0  0  0  0
 12 13  1  0  0  0  0
 13 39  1  0  0  0  0
 13 40  1  0  0  0  0
 13 41  1  0  0  0  0
 14 18  1  0  0  0  0
 14 15  2  0  0  0  0
 15 16  1  0  0  0  0
 15 42  1  0  0  0  0
 16 17  1  0  0  0  0
 17 18  2  0  0  0  0
 17 19  1  0  0  0  0
 19 20  1  0  0  0  0
 19 43  1  0  0  0  0
 20 21  1  0  0  0  0
 20 22  1  0  0  0  0
 20 26  1  0  0  0  0
 22 23  1  0  0  0  0
 22 44  1  0  0  0  0
 22 45  1  0  0  0  0
 23 24  1  0  0  0  0
 23 25  1  0  0  0  0
 23 46  1  0  0  0  0
 24 47  1  0  0  0  0
 24 48  1  0  0  0  0
 24 49  1  0  0  0  0
 25 50  1  0  0  0  0
 25 51  1  0  0  0  0
 25 52  1  0  0  0  0
 26 27  2  0  0  0  0
 26 53  1  0  0  0  0
M  CHG  1  53  -1
M  END
$$$$
ZINC03856798
  -OEChem-08230709463D

 53 54  0     1  0  0  0  0  0999 V2000
   -5.4413   -3.0651   -1.1042 C   0  0  0  0  0  0  0  0  0  0  0  0
   -4.1038   -2.3247   -1.0429 C   0  0  0  0  0  0  0  0  0  0  0  0
   -3.3497   -2.7377    0.2227 C   0  0  2  0  0  0  0  0  0  0  0  0
   -3.2474   -3.8226    0.2469 H   0  0  0  0  0  0  0  0  0  0  0  0
   -4.1275   -2.2712    1.4549 C   0  0  0  0  0  0  0  0  0  0  0  0
   -1.9824   -2.1041    0.2221 C   0  0  0  0  0  0  0  0  0  0  0  0
   -1.8597   -0.7303    0.1938 C   0  0  0  0  0  0  0  0  0  0  0  0
   -0.5947   -0.1451    0.1928 C   0  0  0  0  0  0  0  0  0  0  0  0
    0.5429   -0.9508    0.2151 C   0  0  0  0  0  0  0  0  0  0  0  0
    0.4133   -2.3233    0.2490 C   0  0  0  0  0  0  0  0  0  0  0  0
   -0.8481   -2.9032    0.2495 C   0  0  0  0  0  0  0  0  0  0  0  0
   -0.9723   -4.2564    0.2773 O   0  0  0  0  0  0  0  0  0  0  0  0
    0.2362   -5.0184    0.3046 C   0  0  0  0  0  0  0  0  0  0  0  0
   -0.4590    1.3317    0.1620 C   0  0  0  0  0  0  0  0  0  0  0  0
    0.7777    1.9111    0.1609 C   0  0  0  0  0  0  0  0  0  0  0  0
    0.3350    3.6427    0.1184 S   0  0  0  0  0  0  0  0  0  0  0  0
   -1.4385    3.4221    0.1065 C   0  0  0  0  0  0  0  0  0  0  0  0
   -1.5414    2.1059    0.1295 N   0  0  0  0  0  0  0  0  0  0  0  0
   -2.4402    4.3788    0.0765 N   0  0  0  0  0  0  0  0  0  0  0  0
   -2.0933    5.8019    0.0486 C   0  0  1  0  0  0  0  0  0  0  0  0
   -1.1841    5.9429   -0.5358 H   0  0  0  0  0  0  0  0  0  0  0  0
   -3.2372    6.5932   -0.5888 C   0  0  0  0  0  0  0  0  0  0  0  0
   -3.4119    6.1544   -2.0441 C   0  0  0  0  0  0  0  0  0  0  0  0
   -4.6454    6.8374   -2.6381 C   0  0  0  0  0  0  0  0  0  0  0  0
   -2.1723    6.5507   -2.8486 C   0  0  0  0  0  0  0  0  0  0  0  0
   -1.8669    6.2915    1.4558 C   0  0  0  0  0  0  0  0  0  0  0  0
   -1.9834    5.5298    2.3865 O   0  0  0  0  0  0  0  0  0  0  0  0
   -6.0372   -2.8121   -0.2273 H   0  0  0  0  0  0  0  0  0  0  0  0
   -5.9785   -2.7709   -2.0059 H   0  0  0  0  0  0  0  0  0  0  0  0
   -5.2610   -4.1399   -1.1232 H   0  0  0  0  0  0  0  0  0  0  0  0
   -4.2841   -1.2498   -1.0240 H   0  0  0  0  0  0  0  0  0  0  0  0
   -3.5079   -2.5777   -1.9198 H   0  0  0  0  0  0  0  0  0  0  0  0
   -4.2298   -1.1863    1.4307 H   0  0  0  0  0  0  0  0  0  0  0  0
   -5.1165   -2.7295    1.4553 H   0  0  0  0  0  0  0  0  0  0  0  0
   -3.5903   -2.5654    2.3565 H   0  0  0  0  0  0  0  0  0  0  0  0
   -2.7428   -0.1090    0.1729 H   0  0  0  0  0  0  0  0  0  0  0  0
    1.5245   -0.5004    0.2103 H   0  0  0  0  0  0  0  0  0  0  0  0
    1.2941   -2.9479    0.2704 H   0  0  0  0  0  0  0  0  0  0  0  0
    0.8257   -4.7967   -0.5850 H   0  0  0  0  0  0  0  0  0  0  0  0
    0.8095   -4.7586    1.1945 H   0  0  0  0  0  0  0  0  0  0  0  0
   -0.0048   -6.0812    0.3251 H   0  0  0  0  0  0  0  0  0  0  0  0
    1.7541    1.4501    0.1806 H   0  0  0  0  0  0  0  0  0  0  0  0
   -3.3711    4.1064    0.0740 H   0  0  0  0  0  0  0  0  0  0  0  0
   -4.1595    6.4051   -0.0393 H   0  0  0  0  0  0  0  0  0  0  0  0
   -3.0052    7.6577   -0.5557 H   0  0  0  0  0  0  0  0  0  0  0  0
   -3.5408    5.0728   -2.0844 H   0  0  0  0  0  0  0  0  0  0  0  0
   -4.5383    7.9188   -2.5529 H   0  0  0  0  0  0  0  0  0  0  0  0
   -4.7417    6.5636   -3.6888 H   0  0  0  0  0  0  0  0  0  0  0  0
   -5.5349    6.5166   -2.0960 H   0  0  0  0  0  0  0  0  0  0  0  0
   -1.2936    6.0640   -2.4254 H   0  0  0  0  0  0  0  0  0  0  0  0
   -2.2969    6.2380   -3.8854 H   0  0  0  0  0  0  0  0  0  0  0  0
   -2.0435    7.6323   -2.8083 H   0  0  0  0  0  0  0  0  0  0  0  0
   -1.5359    7.5737    1.6752 O   0  5  0  0  0  0  0  0  0  0  0  0
  1  2  1  0  0  0  0
  1 28  1  0  0  0  0
  1 29  1  0  0  0  0
  1 30  1  0  0  0  0
  2  3  1  0  0  0  0
  2 31  1  0  0  0  0
  2 32  1  0  0  0  0
  3  4  1  0  0  0  0
  3  5  1  0  0  0  0
  3  6  1  0  0  0  0
  5 33  1  0  0  0  0
  5 34  1  0  0  0  0
  5 35  1  0  0  0  0
  6 11  2  0  0  0  0
  6  7  1  0  0  0  0
  7  8  2  0  0  0  0
  7 36  1  0  0  0  0
  8  9  1  0  0  0  0
  8 14  1  0  0  0  0
  9 10  2  0  0  0  0
  9 37  1  0  0  0  0
 10 11  1  0  0  0  0
 10 38  1  0  0  0  0
 11 12  1  0  0  0  0
 12 13  1  0  0  0  0
 13 39  1  0  0  0  0
 13 40  1  0  0  0  0
 13 41  1  0  0  0  0
 14 18  1  0  0  0  0
 14 15  2  0  0  0  0
 15 16  1  0  0  0  0
 15 42  1  0  0  0  0
 16 17  1  0  0  0  0
 17 18  2  0  0  0  0
 17 19  1  0  0  0  0
 19 20  1  0  0  0  0
 19 43  1  0  0  0  0
 20 21  1  0  0  0  0
 20 22  1  0  0  0  0
 20 26  1  0  0  0  0
 22 23  1  0  0  0  0
 22 44  1  0  0  0  0
 22 45  1  0  0  0  0
 23 24  1  0  0  0  0
 23 25  1  0  0  0  0
 23 46  1  0  0  0  0
 24 47  1  0  0  0  0
 24 48  1  0  0  0  0
 24 49  1  0  0  0  0
 25 50  1  0  0  0  0
 25 51  1  0  0  0  0
 25 52  1  0  0  0  0
 26 27  2  0  0  0  0
 26 53  1  0  0  0  0
M  CHG  1  53  -1
M  END
$$$$
ZINC03856799
  -OEChem-08230709463D

 53 54  0     1  0  0  0  0  0999 V2000
   -2.5440   -2.9706   -2.4861 C   0  0  0  0  0  0  0  0  0  0  0  0
   -3.2852   -2.5074   -1.2304 C   0  0  0  0  0  0  0  0  0  0  0  0
   -2.4657   -2.8717    0.0092 C   0  0  2  0  0  0  0  0  0  0  0  0
   -2.2500   -3.9401    0.0011 H   0  0  0  0  0  0  0  0  0  0  0  0
   -3.2618   -2.5217    1.2680 C   0  0  0  0  0  0  0  0  0  0  0  0
   -1.1724   -2.0981    0.0015 C   0  0  0  0  0  0  0  0  0  0  0  0
   -1.1945   -0.7188    0.0096 C   0  0  0  0  0  0  0  0  0  0  0  0
    0.0021   -0.0041    0.0020 C   0  0  0  0  0  0  0  0  0  0  0  0
    1.2179   -0.6861   -0.0191 C   0  0  0  0  0  0  0  0  0  0  0  0
    1.2332   -2.0651   -0.0213 C   0  0  0  0  0  0  0  0  0  0  0  0
    0.0396   -2.7741   -0.0142 C   0  0  0  0  0  0  0  0  0  0  0  0
    0.0581   -4.1331   -0.0221 O   0  0  0  0  0  0  0  0  0  0  0  0
    1.3399   -4.7644   -0.0382 C   0  0  0  0  0  0  0  0  0  0  0  0
    1.1601   -6.2838   -0.0452 C   0  0  0  0  0  0  0  0  0  0  0  0
   -0.0180    1.4791    0.0102 C   0  0  0  0  0  0  0  0  0  0  0  0
    1.1510    2.1850    0.0028 C   0  0  0  0  0  0  0  0  0  0  0  0
    0.5290    3.8611    0.0170 S   0  0  0  0  0  0  0  0  0  0  0  0
   -1.2115    3.4558    0.0313 C   0  0  0  0  0  0  0  0  0  0  0  0
   -1.1758    2.1359    0.0192 N   0  0  0  0  0  0  0  0  0  0  0  0
   -2.3081    4.3024    0.0464 N   0  0  0  0  0  0  0  0  0  0  0  0
   -2.1126    5.7543    0.0521 C   0  0  1  0  0  0  0  0  0  0  0  0
   -1.2356    6.0052   -0.5446 H   0  0  0  0  0  0  0  0  0  0  0  0
   -3.3460    6.4374   -0.5419 C   0  0  0  0  0  0  0  0  0  0  0  0
   -4.5533    6.1880    0.3643 C   0  0  0  0  0  0  0  0  0  0  0  0
   -3.0926    7.9423   -0.6512 C   0  0  0  0  0  0  0  0  0  0  0  0
   -1.9090    6.2282    1.4681 C   0  0  0  0  0  0  0  0  0  0  0  0
   -1.9256    5.4345    2.3791 O   0  0  0  0  0  0  0  0  0  0  0  0
   -1.5720   -2.4798   -2.5361 H   0  0  0  0  0  0  0  0  0  0  0  0
   -2.4040   -4.0509   -2.4477 H   0  0  0  0  0  0  0  0  0  0  0  0
   -3.1278   -2.7110   -3.3692 H   0  0  0  0  0  0  0  0  0  0  0  0
   -4.2572   -2.9981   -1.1804 H   0  0  0  0  0  0  0  0  0  0  0  0
   -3.4252   -1.4271   -1.2688 H   0  0  0  0  0  0  0  0  0  0  0  0
   -3.4775   -1.4532    1.2761 H   0  0  0  0  0  0  0  0  0  0  0  0
   -4.1972   -3.0812    1.2735 H   0  0  0  0  0  0  0  0  0  0  0  0
   -2.6779   -2.7812    2.1511 H   0  0  0  0  0  0  0  0  0  0  0  0
   -2.1379   -0.1933    0.0222 H   0  0  0  0  0  0  0  0  0  0  0  0
    2.1467   -0.1351   -0.0291 H   0  0  0  0  0  0  0  0  0  0  0  0
    2.1747   -2.5941   -0.0335 H   0  0  0  0  0  0  0  0  0  0  0  0
    1.8842   -4.4589   -0.9318 H   0  0  0  0  0  0  0  0  0  0  0  0
    1.9016   -4.4691    0.8480 H   0  0  0  0  0  0  0  0  0  0  0  0
    0.5984   -6.5791   -0.9314 H   0  0  0  0  0  0  0  0  0  0  0  0
    2.1378   -6.7654   -0.0575 H   0  0  0  0  0  0  0  0  0  0  0  0
    0.6158   -6.5893    0.8484 H   0  0  0  0  0  0  0  0  0  0  0  0
    2.1705    1.8288   -0.0082 H   0  0  0  0  0  0  0  0  0  0  0  0
   -3.2054    3.9339    0.0532 H   0  0  0  0  0  0  0  0  0  0  0  0
   -3.5453    6.0296   -1.5329 H   0  0  0  0  0  0  0  0  0  0  0  0
   -5.4320    6.6746   -0.0589 H   0  0  0  0  0  0  0  0  0  0  0  0
   -4.7338    5.1159    0.4422 H   0  0  0  0  0  0  0  0  0  0  0  0
   -4.3540    6.5958    1.3554 H   0  0  0  0  0  0  0  0  0  0  0  0
   -2.2326    8.1200   -1.2968 H   0  0  0  0  0  0  0  0  0  0  0  0
   -3.9714    8.4289   -1.0744 H   0  0  0  0  0  0  0  0  0  0  0  0
   -2.8934    8.3501    0.3398 H   0  0  0  0  0  0  0  0  0  0  0  0
   -1.7093    7.5319    1.7174 O   0  5  0  0  0  0  0  0  0  0  0  0
  1  2  1  0  0  0  0
  1 28  1  0  0  0  0
  1 29  1  0  0  0  0
  1 30  1  0  0  0  0
  2  3  1  0  0  0  0
  2 31  1  0  0  0  0
  2 32  1  0  0  0  0
  3  4  1  0  0  0  0
  3  5  1  0  0  0  0
  3  6  1  0  0  0  0
  5 33  1  0  0  0  0
  5 34  1  0  0  0  0
  5 35  1  0  0  0  0
  6 11  2  0  0  0  0
  6  7  1  0  0  0  0
  7  8  2  0  0  0  0
  7 36  1  0  0  0  0
  8  9  1  0  0  0  0
  8 15  1  0  0  0  0
  9 10  2  0  0  0  0
  9 37  1  0  0  0  0
 10 11  1  0  0  0  0
 10 38  1  0  0  0  0
 11 12  1  0  0  0  0
 12 13  1  0  0  0  0
 13 14  1  0  0  0  0
 13 39  1  0  0  0  0
 13 40  1  0  0  0  0
 14 41  1  0  0  0  0
 14 42  1  0  0  0  0
 14 43  1  0  0  0  0
 15 19  1  0  0  0  0
 15 16  2  0  0  0  0
 16 17  1  0  0  0  0
 16 44  1  0  0  0  0
 17 18  1  0  0  0  0
 18 19  2  0  0  0  0
 18 20  1  0  0  0  0
 20 21  1  0  0  0  0
 20 45  1  0  0  0  0
 21 22  1  0  0  0  0
 21 23  1  0  0  0  0
 21 26  1  0  0  0  0
 23 24  1  0  0  0  0
 23 25  1  0  0  0  0
 23 46  1  0  0  0  0
 24 47  1  0  0  0  0
 24 48  1  0  0  0  0
 24 49  1  0  0  0  0
 25 50  1  0  0  0  0
 25 51  1  0  0  0  0
 25 52  1  0  0  0  0
 26 27  2  0  0  0  0
 26 53  1  0  0  0  0
M  CHG  1  53  -1
M  END
$$$$
ZINC03856815
  -OEChem-08230709463D

 53 54  0     1  0  0  0  0  0999 V2000
    2.3777  -10.9524    5.2388 C   0  0  0  0  0  0  0  0  0  0  0  0
    2.5438   -9.4315    5.2481 C   0  0  0  0  0  0  0  0  0  0  0  0
    1.5583   -8.8394    4.3995 O   0  0  0  0  0  0  0  0  0  0  0  0
    1.5675   -7.4843    4.2952 C   0  0  0  0  0  0  0  0  0  0  0  0
    2.5077   -6.7420    4.9968 C   0  0  0  0  0  0  0  0  0  0  0  0
    2.5194   -5.3668    4.8934 C   0  0  0  0  0  0  0  0  0  0  0  0
    1.5860   -4.7222    4.0829 C   0  0  0  0  0  0  0  0  0  0  0  0
    0.6401   -5.4700    3.3839 C   0  0  0  0  0  0  0  0  0  0  0  0
    0.6367   -6.8456    3.4878 C   0  0  0  0  0  0  0  0  0  0  0  0
   -0.3827   -7.6553    2.7287 C   0  0  0  0  0  0  0  0  0  0  0  0
   -1.7898   -7.2424    3.1654 C   0  0  0  0  0  0  0  0  0  0  0  0
   -0.2198   -7.4031    1.2284 C   0  0  0  0  0  0  0  0  0  0  0  0
    1.5958   -3.2433    3.9693 C   0  0  0  0  0  0  0  0  0  0  0  0
    2.5778   -2.5114    4.5737 C   0  0  0  0  0  0  0  0  0  0  0  0
    2.0923   -0.8544    4.1101 S   0  0  0  0  0  0  0  0  0  0  0  0
    0.6420   -1.3000    3.1656 C   0  0  0  0  0  0  0  0  0  0  0  0
    0.6449   -2.6153    3.2814 N   0  0  0  0  0  0  0  0  0  0  0  0
   -0.2521   -0.4815    2.4946 N   0  0  0  0  0  0  0  0  0  0  0  0
   -0.0638    0.9713    2.5033 C   0  0  1  0  0  0  0  0  0  0  0  0
    1.0020    1.1996    2.4919 H   0  0  0  0  0  0  0  0  0  0  0  0
   -0.7288    1.5792    1.2668 C   0  0  0  0  0  0  0  0  0  0  0  0
   -0.0127    1.0858    0.0080 C   0  0  0  0  0  0  0  0  0  0  0  0
    1.4227    1.6154   -0.0028 C   0  0  0  0  0  0  0  0  0  0  0  0
   -0.7527    1.5927   -1.2315 C   0  0  0  0  0  0  0  0  0  0  0  0
   -0.6884    1.5514    3.7461 C   0  0  0  0  0  0  0  0  0  0  0  0
   -1.2349    0.8257    4.5427 O   0  0  0  0  0  0  0  0  0  0  0  0
    3.1294  -11.4040    5.8861 H   0  0  0  0  0  0  0  0  0  0  0  0
    1.3830  -11.2115    5.6015 H   0  0  0  0  0  0  0  0  0  0  0  0
    2.5022  -11.3253    4.2222 H   0  0  0  0  0  0  0  0  0  0  0  0
    3.5385   -9.1724    4.8854 H   0  0  0  0  0  0  0  0  0  0  0  0
    2.4193   -9.0586    6.2648 H   0  0  0  0  0  0  0  0  0  0  0  0
    3.2304   -7.2419    5.6246 H   0  0  0  0  0  0  0  0  0  0  0  0
    3.2506   -4.7898    5.4401 H   0  0  0  0  0  0  0  0  0  0  0  0
   -0.0871   -4.9733    2.7587 H   0  0  0  0  0  0  0  0  0  0  0  0
   -0.2338   -8.7147    2.9373 H   0  0  0  0  0  0  0  0  0  0  0  0
   -1.9387   -6.1830    2.9568 H   0  0  0  0  0  0  0  0  0  0  0  0
   -2.5271   -7.8281    2.6164 H   0  0  0  0  0  0  0  0  0  0  0  0
   -1.9058   -7.4221    4.2342 H   0  0  0  0  0  0  0  0  0  0  0  0
    0.7826   -7.6973    0.9173 H   0  0  0  0  0  0  0  0  0  0  0  0
   -0.9572   -7.9888    0.6794 H   0  0  0  0  0  0  0  0  0  0  0  0
   -0.3688   -6.3437    1.0198 H   0  0  0  0  0  0  0  0  0  0  0  0
    3.4166   -2.8425    5.1680 H   0  0  0  0  0  0  0  0  0  0  0  0
   -1.0027   -0.8704    2.0191 H   0  0  0  0  0  0  0  0  0  0  0  0
   -0.6662    2.6662    1.3180 H   0  0  0  0  0  0  0  0  0  0  0  0
   -1.7755    1.2768    1.2315 H   0  0  0  0  0  0  0  0  0  0  0  0
    0.0021   -0.0041    0.0020 H   0  0  0  0  0  0  0  0  0  0  0  0
    1.4079    2.7053    0.0031 H   0  0  0  0  0  0  0  0  0  0  0  0
    1.9499    1.2543    0.8802 H   0  0  0  0  0  0  0  0  0  0  0  0
    1.9329    1.2639   -0.8996 H   0  0  0  0  0  0  0  0  0  0  0  0
   -0.2425    1.2411   -2.1283 H   0  0  0  0  0  0  0  0  0  0  0  0
   -1.7753    1.2154   -1.2238 H   0  0  0  0  0  0  0  0  0  0  0  0
   -0.7675    2.6825   -1.2255 H   0  0  0  0  0  0  0  0  0  0  0  0
   -0.6378    2.8742    3.9679 O   0  5  0  0  0  0  0  0  0  0  0  0
  1  2  1  0  0  0  0
  1 27  1  0  0  0  0
  1 28  1  0  0  0  0
  1 29  1  0  0  0  0
  2  3  1  0  0  0  0
  2 30  1  0  0  0  0
  2 31  1  0  0  0  0
  3  4  1  0  0  0  0
  4  9  2  0  0  0  0
  4  5  1  0  0  0  0
  5  6  2  0  0  0  0
  5 32  1  0  0  0  0
  6  7  1  0  0  0  0
  6 33  1  0  0  0  0
  7  8  2  0  0  0  0
  7 13  1  0  0  0  0
  8  9  1  0  0  0  0
  8 34  1  0  0  0  0
  9 10  1  0  0  0  0
 10 11  1  0  0  0  0
 10 12  1  0  0  0  0
 10 35  1  0  0  0  0
 11 36  1  0  0  0  0
 11 37  1  0  0  0  0
 11 38  1  0  0  0  0
 12 39  1  0  0  0  0
 12 40  1  0  0  0  0
 12 41  1  0  0  0  0
 13 17  1  0  0  0  0
 13 14  2  0  0  0  0
 14 15  1  0  0  0  0
 14 42  1  0  0  0  0
 15 16  1  0  0  0  0
 16 17  2  0  0  0  0
 16 18  1  0  0  0  0
 18 19  1  0  0  0  0
 18 43  1  0  0  0  0
 19 20  1  0  0  0  0
 19 21  1  0  0  0  0
 19 25  1  0  0  0  0
 21 22  1  0  0  0  0
 21 44  1  0  0  0  0
 21 45  1  0  0  0  0
 22 23  1  0  0  0  0
 22 24  1  0  0  0  0
 22 46  1  0  0  0  0
 23 47  1  0  0  0  0
 23 48  1  0  0  0  0
 23 49  1  0  0  0  0
 24 50  1  0  0  0  0
 24 51  1  0  0  0  0
 24 52  1  0  0  0  0
 25 26  2  0  0  0  0
 25 53  1  0  0  0  0
M  CHG  1  53  -1
M  END
$$$$
ZINC03856816
  -OEChem-08230709463D

 53 54  0     1  0  0  0  0  0999 V2000
   -0.4491    0.1797    3.1005 C   0  0  0  0  0  0  0  0  0  0  0  0
   -0.2731    1.6686    2.7951 C   0  0  0  0  0  0  0  0  0  0  0  0
   -1.2455    2.0806    1.6881 C   0  0  1  0  0  0  0  0  0  0  0  0
   -1.1092    1.4302    0.8241 H   0  0  0  0  0  0  0  0  0  0  0  0
   -2.6823    1.9557    2.1989 C   0  0  0  0  0  0  0  0  0  0  0  0
   -0.9725    3.5306    1.2831 C   0  0  1  0  0  0  0  0  0  0  0  0
    0.0694    3.6330    0.9795 H   0  0  0  0  0  0  0  0  0  0  0  0
   -1.8702    3.9085    0.1332 C   0  0  0  0  0  0  0  0  0  0  0  0
   -2.8899    4.5229    0.3395 O   0  0  0  0  0  0  0  0  0  0  0  0
   -1.2386    4.4139    2.4211 N   0  0  0  0  0  0  0  0  0  0  0  0
   -0.6070    5.6441    2.5057 C   0  0  0  0  0  0  0  0  0  0  0  0
   -0.7143    6.5756    3.4355 N   0  0  0  0  0  0  0  0  0  0  0  0
   -0.0214    7.7094    3.3565 C   0  0  0  0  0  0  0  0  0  0  0  0
    0.8058    7.9145    2.2894 C   0  0  0  0  0  0  0  0  0  0  0  0
    0.5626    6.3937    1.3814 S   0  0  0  0  0  0  0  0  0  0  0  0
   -0.1511    8.7420    4.4135 C   0  0  0  0  0  0  0  0  0  0  0  0
    0.4907    9.9715    4.2714 C   0  0  0  0  0  0  0  0  0  0  0  0
    0.3678   10.9296    5.2557 C   0  0  0  0  0  0  0  0  0  0  0  0
   -0.3939   10.6709    6.3871 C   0  0  0  0  0  0  0  0  0  0  0  0
   -1.0340    9.4479    6.5316 C   0  0  0  0  0  0  0  0  0  0  0  0
   -0.9194    8.4873    5.5481 C   0  0  0  0  0  0  0  0  0  0  0  0
   -1.8599    9.1713    7.7614 C   0  0  0  0  0  0  0  0  0  0  0  0
   -3.3048    8.8809    7.3507 C   0  0  0  0  0  0  0  0  0  0  0  0
   -1.2861    7.9599    8.4991 C   0  0  0  0  0  0  0  0  0  0  0  0
   -0.5134   11.6174    7.3552 O   0  0  0  0  0  0  0  0  0  0  0  0
    0.1712   12.8534    7.1420 C   0  0  0  0  0  0  0  0  0  0  0  0
   -0.0790   13.7862    8.3287 C   0  0  0  0  0  0  0  0  0  0  0  0
    0.2437   -0.1138    3.8891 H   0  0  0  0  0  0  0  0  0  0  0  0
   -1.4721   -0.0055    3.4280 H   0  0  0  0  0  0  0  0  0  0  0  0
   -0.2443   -0.4022    2.2018 H   0  0  0  0  0  0  0  0  0  0  0  0
   -0.4779    2.2505    3.6938 H   0  0  0  0  0  0  0  0  0  0  0  0
    0.7499    1.8538    2.4676 H   0  0  0  0  0  0  0  0  0  0  0  0
   -3.3751    2.2492    1.4102 H   0  0  0  0  0  0  0  0  0  0  0  0
   -2.8768    0.9227    2.4874 H   0  0  0  0  0  0  0  0  0  0  0  0
   -2.8186    2.6061    3.0629 H   0  0  0  0  0  0  0  0  0  0  0  0
   -1.8571    4.1374    3.1154 H   0  0  0  0  0  0  0  0  0  0  0  0
    1.4336    8.7621    2.0576 H   0  0  0  0  0  0  0  0  0  0  0  0
    1.0831   10.1735    3.3913 H   0  0  0  0  0  0  0  0  0  0  0  0
    0.8650   11.8821    5.1463 H   0  0  0  0  0  0  0  0  0  0  0  0
   -1.4214    7.5375    5.6590 H   0  0  0  0  0  0  0  0  0  0  0  0
   -1.8366   10.0411    8.4179 H   0  0  0  0  0  0  0  0  0  0  0  0
   -3.3281    8.0111    6.6941 H   0  0  0  0  0  0  0  0  0  0  0  0
   -3.9022    8.6808    8.2402 H   0  0  0  0  0  0  0  0  0  0  0  0
   -3.7136    9.7439    6.8251 H   0  0  0  0  0  0  0  0  0  0  0  0
   -1.8834    7.7598    9.3887 H   0  0  0  0  0  0  0  0  0  0  0  0
   -1.3094    7.0901    7.8426 H   0  0  0  0  0  0  0  0  0  0  0  0
   -0.2567    8.1668    8.7917 H   0  0  0  0  0  0  0  0  0  0  0  0
    1.2406   12.6649    7.0472 H   0  0  0  0  0  0  0  0  0  0  0  0
   -0.1978   13.3203    6.2287 H   0  0  0  0  0  0  0  0  0  0  0  0
    0.4433   14.7291    8.1660 H   0  0  0  0  0  0  0  0  0  0  0  0
   -1.1483   13.9748    8.4234 H   0  0  0  0  0  0  0  0  0  0  0  0
    0.2900   13.3194    9.2419 H   0  0  0  0  0  0  0  0  0  0  0  0
   -1.5370    3.5624   -1.1202 O   0  5  0  0  0  0  0  0  0  0  0  0
  1  2  1  0  0  0  0
  1 28  1  0  0  0  0
  1 29  1  0  0  0  0
  1 30  1  0  0  0  0
  2  3  1  0  0  0  0
  2 31  1  0  0  0  0
  2 32  1  0  0  0  0
  3  4  1  0  0  0  0
  3  5  1  0  0  0  0
  3  6  1  0  0  0  0
  5 33  1  0  0  0  0
  5 34  1  0  0  0  0
  5 35  1  0  0  0  0
  6  7  1  0  0  0  0
  6  8  1  0  0  0  0
  6 10  1  0  0  0  0
  8  9  2  0  0  0  0
  8 53  1  0  0  0  0
 10 11  1  0  0  0  0
 10 36  1  0  0  0  0
 11 15  1  0  0  0  0
 11 12  2  0  0  0  0
 12 13  1  0  0  0  0
 13 14  2  0  0  0  0
 13 16  1  0  0  0  0
 14 15  1  0  0  0  0
 14 37  1  0  0  0  0
 16 21  2  0  0  0  0
 16 17  1  0  0  0  0
 17 18  2  0  0  0  0
 17 38  1  0  0  0  0
 18 19  1  0  0  0  0
 18 39  1  0  0  0  0
 19 20  2  0  0  0  0
 19 25  1  0  0  0  0
 20 21  1  0  0  0  0
 20 22  1  0  0  0  0
 21 40  1  0  0  0  0
 22 23  1  0  0  0  0
 22 24  1  0  0  0  0
 22 41  1  0  0  0  0
 23 42  1  0  0  0  0
 23 43  1  0  0  0  0
 23 44  1  0  0  0  0
 24 45  1  0  0  0  0
 24 46  1  0  0  0  0
 24 47  1  0  0  0  0
 25 26  1  0  0  0  0
 26 27  1  0  0  0  0
 26 48  1  0  0  0  0
 26 49  1  0  0  0  0
 27 50  1  0  0  0  0
 27 51  1  0  0  0  0
 27 52  1  0  0  0  0
M  CHG  1  53  -1
M  END
$$$$
ZINC03856817
  -OEChem-08230709463D

 53 54  0     1  0  0  0  0  0999 V2000
   -1.7003    3.9407   -2.3336 C   0  0  0  0  0  0  0  0  0  0  0  0
   -0.9660    3.2909   -1.1591 C   0  0  0  0  0  0  0  0  0  0  0  0
    0.5222    3.6385   -1.2327 C   0  0  2  0  0  0  0  0  0  0  0  0
    0.6407    4.7213   -1.2739 H   0  0  0  0  0  0  0  0  0  0  0  0
    1.1311    3.0106   -2.4880 C   0  0  0  0  0  0  0  0  0  0  0  0
    1.2350    3.0943    0.0069 C   0  0  1  0  0  0  0  0  0  0  0  0
    0.7441    3.4725    0.9036 H   0  0  0  0  0  0  0  0  0  0  0  0
    1.1765    1.5884   -0.0006 C   0  0  0  0  0  0  0  0  0  0  0  0
    2.1986    0.9442   -0.0139 O   0  0  0  0  0  0  0  0  0  0  0  0
    2.6340    3.5287   -0.0041 N   0  0  0  0  0  0  0  0  0  0  0  0
    3.3380    3.6279    1.1850 C   0  0  0  0  0  0  0  0  0  0  0  0
    4.5918    3.9905    1.3854 N   0  0  0  0  0  0  0  0  0  0  0  0
    5.1082    4.0325    2.6115 C   0  0  0  0  0  0  0  0  0  0  0  0
    4.3288    3.6842    3.6775 C   0  0  0  0  0  0  0  0  0  0  0  0
    2.7918    3.2913    2.8531 S   0  0  0  0  0  0  0  0  0  0  0  0
    6.5173    4.4475    2.8173 C   0  0  0  0  0  0  0  0  0  0  0  0
    7.0855    4.3846    4.0889 C   0  0  0  0  0  0  0  0  0  0  0  0
    8.3960    4.7707    4.2769 C   0  0  0  0  0  0  0  0  0  0  0  0
    9.1494    5.2217    3.2015 C   0  0  0  0  0  0  0  0  0  0  0  0
    8.5868    5.2855    1.9344 C   0  0  0  0  0  0  0  0  0  0  0  0
    7.2780    4.8957    1.7388 C   0  0  0  0  0  0  0  0  0  0  0  0
    9.4082    5.7756    0.7699 C   0  0  0  0  0  0  0  0  0  0  0  0
    9.4990    4.6752   -0.2892 C   0  0  0  0  0  0  0  0  0  0  0  0
    8.7451    7.0139    0.1633 C   0  0  0  0  0  0  0  0  0  0  0  0
   10.4408    5.6011    3.3899 O   0  0  0  0  0  0  0  0  0  0  0  0
   10.9565    5.5096    4.7195 C   0  0  0  0  0  0  0  0  0  0  0  0
   12.4136    5.9759    4.7346 C   0  0  0  0  0  0  0  0  0  0  0  0
   -1.5771    5.0226   -2.2853 H   0  0  0  0  0  0  0  0  0  0  0  0
   -1.2863    3.5694   -3.2711 H   0  0  0  0  0  0  0  0  0  0  0  0
   -2.7604    3.6930   -2.2812 H   0  0  0  0  0  0  0  0  0  0  0  0
   -1.0892    2.2089   -1.2074 H   0  0  0  0  0  0  0  0  0  0  0  0
   -1.3799    3.6622   -0.2216 H   0  0  0  0  0  0  0  0  0  0  0  0
    2.1913    3.2583   -2.5405 H   0  0  0  0  0  0  0  0  0  0  0  0
    1.0125    1.9279   -2.4468 H   0  0  0  0  0  0  0  0  0  0  0  0
    0.6233    3.3984   -3.3711 H   0  0  0  0  0  0  0  0  0  0  0  0
    3.0675    3.7470   -0.8440 H   0  0  0  0  0  0  0  0  0  0  0  0
    4.5737    3.6541    4.7290 H   0  0  0  0  0  0  0  0  0  0  0  0
    6.5001    4.0336    4.9258 H   0  0  0  0  0  0  0  0  0  0  0  0
    8.8366    4.7226    5.2617 H   0  0  0  0  0  0  0  0  0  0  0  0
    6.8421    4.9414    0.7517 H   0  0  0  0  0  0  0  0  0  0  0  0
   10.4101    6.0320    1.1143 H   0  0  0  0  0  0  0  0  0  0  0  0
   10.0931    5.0297   -1.1315 H   0  0  0  0  0  0  0  0  0  0  0  0
    9.9714    3.7931    0.1429 H   0  0  0  0  0  0  0  0  0  0  0  0
    8.4971    4.4189   -0.6336 H   0  0  0  0  0  0  0  0  0  0  0  0
    8.6804    7.7978    0.9178 H   0  0  0  0  0  0  0  0  0  0  0  0
    9.3392    7.3684   -0.6790 H   0  0  0  0  0  0  0  0  0  0  0  0
    7.7432    6.7575   -0.1811 H   0  0  0  0  0  0  0  0  0  0  0  0
   10.3659    6.1417    5.3826 H   0  0  0  0  0  0  0  0  0  0  0  0
   10.9024    4.4755    5.0598 H   0  0  0  0  0  0  0  0  0  0  0  0
   12.4677    7.0100    4.3943 H   0  0  0  0  0  0  0  0  0  0  0  0
   12.8070    5.9061    5.7487 H   0  0  0  0  0  0  0  0  0  0  0  0
   13.0043    5.3439    4.0715 H   0  0  0  0  0  0  0  0  0  0  0  0
   -0.0110    0.9628    0.0073 O   0  5  0  0  0  0  0  0  0  0  0  0
  1  2  1  0  0  0  0
  1 28  1  0  0  0  0
  1 29  1  0  0  0  0
  1 30  1  0  0  0  0
  2  3  1  0  0  0  0
  2 31  1  0  0  0  0
  2 32  1  0  0  0  0
  3  4  1  0  0  0  0
  3  5  1  0  0  0  0
  3  6  1  0  0  0  0
  5 33  1  0  0  0  0
  5 34  1  0  0  0  0
  5 35  1  0  0  0  0
  6  7  1  0  0  0  0
  6  8  1  0  0  0  0
  6 10  1  0  0  0  0
  8  9  2  0  0  0  0
  8 53  1  0  0  0  0
 10 11  1  0  0  0  0
 10 36  1  0  0  0  0
 11 15  1  0  0  0  0
 11 12  2  0  0  0  0
 12 13  1  0  0  0  0
 13 14  2  0  0  0  0
 13 16  1  0  0  0  0
 14 15  1  0  0  0  0
 14 37  1  0  0  0  0
 16 21  2  0  0  0  0
 16 17  1  0  0  0  0
 17 18  2  0  0  0  0
 17 38  1  0  0  0  0
 18 19  1  0  0  0  0
 18 39  1  0  0  0  0
 19 20  2  0  0  0  0
 19 25  1  0  0  0  0
 20 21  1  0  0  0  0
 20 22  1  0  0  0  0
 21 40  1  0  0  0  0
 22 23  1  0  0  0  0
 22 24  1  0  0  0  0
 22 41  1  0  0  0  0
 23 42  1  0  0  0  0
 23 43  1  0  0  0  0
 23 44  1  0  0  0  0
 24 45  1  0  0  0  0
 24 46  1  0  0  0  0
 24 47  1  0  0  0  0
 25 26  1  0  0  0  0
 26 27  1  0  0  0  0
 26 48  1  0  0  0  0
 26 49  1  0  0  0  0
 27 50  1  0  0  0  0
 27 51  1  0  0  0  0
 27 52  1  0  0  0  0
M  CHG  1  53  -1
M  END
$$$$
ZINC03856818
  -OEChem-08230709463D

 53 54  0     1  0  0  0  0  0999 V2000
    1.5502   -7.1393   -0.8398 C   0  0  0  0  0  0  0  0  0  0  0  0
    1.7066   -6.8121    0.6466 C   0  0  0  0  0  0  0  0  0  0  0  0
    0.3993   -7.1241    1.3778 C   0  0  2  0  0  0  0  0  0  0  0  0
    0.1095   -8.1560    1.1797 H   0  0  0  0  0  0  0  0  0  0  0  0
   -0.6996   -6.1817    0.8823 C   0  0  0  0  0  0  0  0  0  0  0  0
    0.5976   -6.9298    2.8824 C   0  0  2  0  0  0  0  0  0  0  0  0
    1.4013   -7.5790    3.2297 H   0  0  0  0  0  0  0  0  0  0  0  0
   -0.6776   -7.2778    3.6062 C   0  0  0  0  0  0  0  0  0  0  0  0
   -1.4423   -6.4030    3.9374 O   0  0  0  0  0  0  0  0  0  0  0  0
    0.9468   -5.5330    3.1526 N   0  0  0  0  0  0  0  0  0  0  0  0
    1.6615   -5.2058    4.2936 C   0  0  0  0  0  0  0  0  0  0  0  0
    2.0644   -4.0213    4.7155 N   0  0  0  0  0  0  0  0  0  0  0  0
    2.7529   -3.8917    5.8473 C   0  0  0  0  0  0  0  0  0  0  0  0
    3.0369   -5.0034    6.5881 C   0  0  0  0  0  0  0  0  0  0  0  0
    2.2762   -6.2747    5.5873 S   0  0  0  0  0  0  0  0  0  0  0  0
    3.2016   -2.5532    6.3025 C   0  0  0  0  0  0  0  0  0  0  0  0
    4.0055   -2.4338    7.4353 C   0  0  0  0  0  0  0  0  0  0  0  0
    4.4206   -1.1878    7.8561 C   0  0  0  0  0  0  0  0  0  0  0  0
    4.0389   -0.0532    7.1531 C   0  0  0  0  0  0  0  0  0  0  0  0
    3.2383   -0.1686    6.0253 C   0  0  0  0  0  0  0  0  0  0  0  0
    2.8154   -1.4117    5.6022 C   0  0  0  0  0  0  0  0  0  0  0  0
    2.8255    1.0657    5.2657 C   0  0  0  0  0  0  0  0  0  0  0  0
    3.3397    0.9754    3.8276 C   0  0  0  0  0  0  0  0  0  0  0  0
    1.2992    1.1719    5.2559 C   0  0  0  0  0  0  0  0  0  0  0  0
    4.4497    1.1734    7.5704 O   0  0  0  0  0  0  0  0  0  0  0  0
    5.2717    1.2195    8.7384 C   0  0  0  0  0  0  0  0  0  0  0  0
    5.6316    2.6733    9.0516 C   0  0  0  0  0  0  0  0  0  0  0  0
    1.3123   -8.1966   -0.9560 H   0  0  0  0  0  0  0  0  0  0  0  0
    0.7454   -6.5372   -1.2616 H   0  0  0  0  0  0  0  0  0  0  0  0
    2.4815   -6.9170   -1.3607 H   0  0  0  0  0  0  0  0  0  0  0  0
    1.9445   -5.7547    0.7629 H   0  0  0  0  0  0  0  0  0  0  0  0
    2.5114   -7.4141    1.0684 H   0  0  0  0  0  0  0  0  0  0  0  0
   -0.8408   -6.3201   -0.1896 H   0  0  0  0  0  0  0  0  0  0  0  0
   -1.6309   -6.4040    1.4032 H   0  0  0  0  0  0  0  0  0  0  0  0
   -0.4098   -5.1498    1.0804 H   0  0  0  0  0  0  0  0  0  0  0  0
    0.6777   -4.8371    2.5327 H   0  0  0  0  0  0  0  0  0  0  0  0
    3.5733   -5.0905    7.5214 H   0  0  0  0  0  0  0  0  0  0  0  0
    4.3025   -3.3160    7.9829 H   0  0  0  0  0  0  0  0  0  0  0  0
    5.0437   -1.0946    8.7334 H   0  0  0  0  0  0  0  0  0  0  0  0
    2.1888   -1.5005    4.7271 H   0  0  0  0  0  0  0  0  0  0  0  0
    3.2479    1.9473    5.7479 H   0  0  0  0  0  0  0  0  0  0  0  0
    2.9173    0.0938    3.3454 H   0  0  0  0  0  0  0  0  0  0  0  0
    4.4271    0.8997    3.8346 H   0  0  0  0  0  0  0  0  0  0  0  0
    3.0411    1.8682    3.2782 H   0  0  0  0  0  0  0  0  0  0  0  0
    0.8768    0.2903    4.7737 H   0  0  0  0  0  0  0  0  0  0  0  0
    0.9329    1.2362    6.2805 H   0  0  0  0  0  0  0  0  0  0  0  0
    1.0006    2.0647    4.7065 H   0  0  0  0  0  0  0  0  0  0  0  0
    4.7302    0.7897    9.5811 H   0  0  0  0  0  0  0  0  0  0  0  0
    6.1838    0.6490    8.5636 H   0  0  0  0  0  0  0  0  0  0  0  0
    6.1731    3.1031    8.2090 H   0  0  0  0  0  0  0  0  0  0  0  0
    4.7195    3.2438    9.2265 H   0  0  0  0  0  0  0  0  0  0  0  0
    6.2586    2.7085    9.9425 H   0  0  0  0  0  0  0  0  0  0  0  0
   -0.9639   -8.5597    3.8828 O   0  5  0  0  0  0  0  0  0  0  0  0
  1  2  1  0  0  0  0
  1 28  1  0  0  0  0
  1 29  1  0  0  0  0
  1 30  1  0  0  0  0
  2  3  1  0  0  0  0
  2 31  1  0  0  0  0
  2 32  1  0  0  0  0
  3  4  1  0  0  0  0
  3  5  1  0  0  0  0
  3  6  1  0  0  0  0
  5 33  1  0  0  0  0
  5 34  1  0  0  0  0
  5 35  1  0  0  0  0
  6  7  1  0  0  0  0
  6  8  1  0  0  0  0
  6 10  1  0  0  0  0
  8  9  2  0  0  0  0
  8 53  1  0  0  0  0
 10 11  1  0  0  0  0
 10 36  1  0  0  0  0
 11 15  1  0  0  0  0
 11 12  2  0  0  0  0
 12 13  1  0  0  0  0
 13 14  2  0  0  0  0
 13 16  1  0  0  0  0
 14 15  1  0  0  0  0
 14 37  1  0  0  0  0
 16 21  2  0  0  0  0
 16 17  1  0  0  0  0
 17 18  2  0  0  0  0
 17 38  1  0  0  0  0
 18 19  1  0  0  0  0
 18 39  1  0  0  0  0
 19 20  2  0  0  0  0
 19 25  1  0  0  0  0
 20 21  1  0  0  0  0
 20 22  1  0  0  0  0
 21 40  1  0  0  0  0
 22 23  1  0  0  0  0
 22 24  1  0  0  0  0
 22 41  1  0  0  0  0
 23 42  1  0  0  0  0
 23 43  1  0  0  0  0
 23 44  1  0  0  0  0
 24 45  1  0  0  0  0
 24 46  1  0  0  0  0
 24 47  1  0  0  0  0
 25 26  1  0  0  0  0
 26 27  1  0  0  0  0
 26 48  1  0  0  0  0
 26 49  1  0  0  0  0
 27 50  1  0  0  0  0
 27 51  1  0  0  0  0
 27 52  1  0  0  0  0
M  CHG  1  53  -1
M  END
$$$$
ZINC03856830
  -OEChem-08230709463D

 56 57  0     1  0  0  0  0  0999 V2000
    2.4176   -4.0391    2.0300 C   0  0  0  0  0  0  0  0  0  0  0  0
    2.0158   -3.1217    3.1866 C   0  0  1  0  0  0  0  0  0  0  0  0
    1.3319   -3.6514    3.8498 H   0  0  0  0  0  0  0  0  0  0  0  0
    3.2463   -2.7142    3.9554 C   0  0  0  0  0  0  0  0  0  0  0  0
    3.5403   -1.5461    4.0499 O   0  0  0  0  0  0  0  0  0  0  0  0
    1.3541   -1.9275    2.6555 N   0  0  0  0  0  0  0  0  0  0  0  0
   -0.0033   -1.9528    2.3790 C   0  0  0  0  0  0  0  0  0  0  0  0
   -0.7763   -0.9944    1.9020 N   0  0  0  0  0  0  0  0  0  0  0  0
   -2.0756   -1.1972    1.6955 C   0  0  0  0  0  0  0  0  0  0  0  0
   -2.6166   -2.4167    1.9879 C   0  0  0  0  0  0  0  0  0  0  0  0
   -1.1714   -3.2915    2.5731 S   0  0  0  0  0  0  0  0  0  0  0  0
   -2.9280   -0.1084    1.1596 C   0  0  0  0  0  0  0  0  0  0  0  0
   -4.2849   -0.3287    0.9339 C   0  0  0  0  0  0  0  0  0  0  0  0
   -5.0741    0.6881    0.4353 C   0  0  0  0  0  0  0  0  0  0  0  0
   -4.5222    1.9263    0.1582 C   0  0  0  0  0  0  0  0  0  0  0  0
   -3.1781    2.1572    0.3839 C   0  0  0  0  0  0  0  0  0  0  0  0
   -2.3734    1.1441    0.8790 C   0  0  0  0  0  0  0  0  0  0  0  0
   -1.0510    1.3685    1.0964 O   0  0  0  0  0  0  0  0  0  0  0  0
   -0.1419    0.9119    0.0928 C   0  0  0  0  0  0  0  0  0  0  0  0
   -2.5863    3.5107    0.0858 C   0  0  0  0  0  0  0  0  0  0  0  0
   -3.6976    4.4690   -0.3474 C   0  0  0  0  0  0  0  0  0  0  0  0
   -1.9030    4.0564    1.3413 C   0  0  0  0  0  0  0  0  0  0  0  0
   -1.5576    3.3809   -1.0393 C   0  0  0  0  0  0  0  0  0  0  0  0
   -6.5418    0.4487    0.1915 C   0  0  0  0  0  0  0  0  0  0  0  0
   -6.8947   -0.9896    0.5758 C   0  0  0  0  0  0  0  0  0  0  0  0
   -7.3649    1.4198    1.0402 C   0  0  0  0  0  0  0  0  0  0  0  0
   -6.8561    0.6727   -1.2890 C   0  0  0  0  0  0  0  0  0  0  0  0
    2.9100   -4.9277    2.4252 H   0  0  0  0  0  0  0  0  0  0  0  0
    1.5277   -4.3339    1.4740 H   0  0  0  0  0  0  0  0  0  0  0  0
    3.1015   -3.5094    1.3668 H   0  0  0  0  0  0  0  0  0  0  0  0
    1.8662   -1.1191    2.4973 H   0  0  0  0  0  0  0  0  0  0  0  0
   -3.6364   -2.7589    1.8907 H   0  0  0  0  0  0  0  0  0  0  0  0
   -4.7188   -1.2942    1.1484 H   0  0  0  0  0  0  0  0  0  0  0  0
   -5.1454    2.7174   -0.2321 H   0  0  0  0  0  0  0  0  0  0  0  0
   -0.1209   -0.1779    0.0902 H   0  0  0  0  0  0  0  0  0  0  0  0
    0.8564    1.2940    0.3059 H   0  0  0  0  0  0  0  0  0  0  0  0
   -0.4678    1.2713   -0.8833 H   0  0  0  0  0  0  0  0  0  0  0  0
   -4.4306    4.5614    0.4541 H   0  0  0  0  0  0  0  0  0  0  0  0
   -3.2696    5.4479   -0.5631 H   0  0  0  0  0  0  0  0  0  0  0  0
   -4.1844    4.0802   -1.2418 H   0  0  0  0  0  0  0  0  0  0  0  0
   -1.1113    3.3737    1.6499 H   0  0  0  0  0  0  0  0  0  0  0  0
   -1.4750    5.0354    1.1256 H   0  0  0  0  0  0  0  0  0  0  0  0
   -2.6360    4.1488    2.1427 H   0  0  0  0  0  0  0  0  0  0  0  0
   -1.9899    2.8134   -1.8633 H   0  0  0  0  0  0  0  0  0  0  0  0
   -1.2758    4.3737   -1.3902 H   0  0  0  0  0  0  0  0  0  0  0  0
   -0.6740    2.8633   -0.6657 H   0  0  0  0  0  0  0  0  0  0  0  0
   -6.6708   -1.1493    1.6305 H   0  0  0  0  0  0  0  0  0  0  0  0
   -7.9563   -1.1628    0.3995 H   0  0  0  0  0  0  0  0  0  0  0  0
   -6.3083   -1.6815   -0.0288 H   0  0  0  0  0  0  0  0  0  0  0  0
   -7.1135    2.4445    0.7664 H   0  0  0  0  0  0  0  0  0  0  0  0
   -8.4265    1.2467    0.8639 H   0  0  0  0  0  0  0  0  0  0  0  0
   -7.1410    1.2602    2.0950 H   0  0  0  0  0  0  0  0  0  0  0  0
   -6.2698   -0.0192   -1.8937 H   0  0  0  0  0  0  0  0  0  0  0  0
   -7.9177    0.4995   -1.4654 H   0  0  0  0  0  0  0  0  0  0  0  0
   -6.6047    1.6974   -1.5628 H   0  0  0  0  0  0  0  0  0  0  0  0
    4.0156   -3.6489    4.5351 O   0  5  0  0  0  0  0  0  0  0  0  0
  1  2  1  0  0  0  0
  1 28  1  0  0  0  0
  1 29  1  0  0  0  0
  1 30  1  0  0  0  0
  2  3  1  0  0  0  0
  2  4  1  0  0  0  0
  2  6  1  0  0  0  0
  4  5  2  0  0  0  0
  4 56  1  0  0  0  0
  6  7  1  0  0  0  0
  6 31  1  0  0  0  0
  7 11  1  0  0  0  0
  7  8  2  0  0  0  0
  8  9  1  0  0  0  0
  9 10  2  0  0  0  0
  9 12  1  0  0  0  0
 10 11  1  0  0  0  0
 10 32  1  0  0  0  0
 12 17  2  0  0  0  0
 12 13  1  0  0  0  0
 13 14  2  0  0  0  0
 13 33  1  0  0  0  0
 14 15  1  0  0  0  0
 14 24  1  0  0  0  0
 15 16  2  0  0  0  0
 15 34  1  0  0  0  0
 16 17  1  0  0  0  0
 16 20  1  0  0  0  0
 17 18  1  0  0  0  0
 18 19  1  0  0  0  0
 19 35  1  0  0  0  0
 19 36  1  0  0  0  0
 19 37  1  0  0  0  0
 20 21  1  0  0  0  0
 20 22  1  0  0  0  0
 20 23  1  0  0  0  0
 21 38  1  0  0  0  0
 21 39  1  0  0  0  0
 21 40  1  0  0  0  0
 22 41  1  0  0  0  0
 22 42  1  0  0  0  0
 22 43  1  0  0  0  0
 23 44  1  0  0  0  0
 23 45  1  0  0  0  0
 23 46  1  0  0  0  0
 24 25  1  0  0  0  0
 24 26  1  0  0  0  0
 24 27  1  0  0  0  0
 25 47  1  0  0  0  0
 25 48  1  0  0  0  0
 25 49  1  0  0  0  0
 26 50  1  0  0  0  0
 26 51  1  0  0  0  0
 26 52  1  0  0  0  0
 27 53  1  0  0  0  0
 27 54  1  0  0  0  0
 27 55  1  0  0  0  0
M  CHG  1  56  -1
M  END
$$$$
ZINC03856831
  -OEChem-08230709463D

 56 57  0     1  0  0  0  0  0999 V2000
    1.8551   -3.1630    4.7042 C   0  0  0  0  0  0  0  0  0  0  0  0
    2.0155   -3.1234    3.1831 C   0  0  2  0  0  0  0  0  0  0  0  0
    1.5624   -4.0135    2.7467 H   0  0  0  0  0  0  0  0  0  0  0  0
    3.4808   -3.0828    2.8335 C   0  0  0  0  0  0  0  0  0  0  0  0
    3.9266   -2.1514    2.2059 O   0  0  0  0  0  0  0  0  0  0  0  0
    1.3537   -1.9287    2.6532 N   0  0  0  0  0  0  0  0  0  0  0  0
   -0.0036   -1.9539    2.3763 C   0  0  0  0  0  0  0  0  0  0  0  0
   -0.7766   -0.9951    1.9002 N   0  0  0  0  0  0  0  0  0  0  0  0
   -2.0759   -1.1976    1.6939 C   0  0  0  0  0  0  0  0  0  0  0  0
   -2.6171   -2.4172    1.9858 C   0  0  0  0  0  0  0  0  0  0  0  0
   -1.1717   -3.2927    2.5696 S   0  0  0  0  0  0  0  0  0  0  0  0
   -2.9282   -0.1085    1.1584 C   0  0  0  0  0  0  0  0  0  0  0  0
   -4.2852   -0.3287    0.9325 C   0  0  0  0  0  0  0  0  0  0  0  0
   -5.0743    0.6884    0.4344 C   0  0  0  0  0  0  0  0  0  0  0  0
   -4.5225    1.9268    0.1584 C   0  0  0  0  0  0  0  0  0  0  0  0
   -3.1782    2.1574    0.3839 C   0  0  0  0  0  0  0  0  0  0  0  0
   -2.3737    1.1441    0.8784 C   0  0  0  0  0  0  0  0  0  0  0  0
   -1.0512    1.3683    1.0960 O   0  0  0  0  0  0  0  0  0  0  0  0
   -0.1421    0.9122    0.0922 C   0  0  0  0  0  0  0  0  0  0  0  0
   -2.5863    3.5109    0.0860 C   0  0  0  0  0  0  0  0  0  0  0  0
   -3.6976    4.4694   -0.3468 C   0  0  0  0  0  0  0  0  0  0  0  0
   -1.9028    4.0562    1.3415 C   0  0  0  0  0  0  0  0  0  0  0  0
   -1.5577    3.3813   -1.0392 C   0  0  0  0  0  0  0  0  0  0  0  0
   -6.5420    0.4490    0.1900 C   0  0  0  0  0  0  0  0  0  0  0  0
   -6.8948   -0.9897    0.5731 C   0  0  0  0  0  0  0  0  0  0  0  0
   -7.3654    1.4194    1.0391 C   0  0  0  0  0  0  0  0  0  0  0  0
   -6.8558    0.6740   -1.2905 C   0  0  0  0  0  0  0  0  0  0  0  0
    0.7953   -3.1923    4.9571 H   0  0  0  0  0  0  0  0  0  0  0  0
    2.3475   -4.0519    5.0985 H   0  0  0  0  0  0  0  0  0  0  0  0
    2.3083   -2.2728    5.1406 H   0  0  0  0  0  0  0  0  0  0  0  0
    1.8658   -1.1200    2.4962 H   0  0  0  0  0  0  0  0  0  0  0  0
   -3.6370   -2.7590    1.8894 H   0  0  0  0  0  0  0  0  0  0  0  0
   -4.7191   -1.2943    1.1465 H   0  0  0  0  0  0  0  0  0  0  0  0
   -5.1457    2.7182   -0.2312 H   0  0  0  0  0  0  0  0  0  0  0  0
   -0.1211   -0.1776    0.0892 H   0  0  0  0  0  0  0  0  0  0  0  0
    0.8562    1.2943    0.3055 H   0  0  0  0  0  0  0  0  0  0  0  0
   -0.4680    1.2720   -0.8837 H   0  0  0  0  0  0  0  0  0  0  0  0
   -4.4303    4.5618    0.4548 H   0  0  0  0  0  0  0  0  0  0  0  0
   -3.2694    5.4484   -0.5623 H   0  0  0  0  0  0  0  0  0  0  0  0
   -4.1845    4.0810   -1.2413 H   0  0  0  0  0  0  0  0  0  0  0  0
   -1.1111    3.3733    1.6498 H   0  0  0  0  0  0  0  0  0  0  0  0
   -1.4747    5.0351    1.1260 H   0  0  0  0  0  0  0  0  0  0  0  0
   -2.6356    4.1485    2.1431 H   0  0  0  0  0  0  0  0  0  0  0  0
   -1.9902    2.8137   -1.8632 H   0  0  0  0  0  0  0  0  0  0  0  0
   -1.2761    4.3740   -1.3902 H   0  0  0  0  0  0  0  0  0  0  0  0
   -0.6741    2.8637   -0.6659 H   0  0  0  0  0  0  0  0  0  0  0  0
   -6.6712   -1.1500    1.6278 H   0  0  0  0  0  0  0  0  0  0  0  0
   -7.9563   -1.1628    0.3963 H   0  0  0  0  0  0  0  0  0  0  0  0
   -6.3082   -1.6810   -0.0318 H   0  0  0  0  0  0  0  0  0  0  0  0
   -7.1140    2.4443    0.7661 H   0  0  0  0  0  0  0  0  0  0  0  0
   -8.4269    1.2463    0.8623 H   0  0  0  0  0  0  0  0  0  0  0  0
   -7.1418    1.2591    2.0938 H   0  0  0  0  0  0  0  0  0  0  0  0
   -6.2691   -0.0174   -1.8954 H   0  0  0  0  0  0  0  0  0  0  0  0
   -7.9173    0.5009   -1.4673 H   0  0  0  0  0  0  0  0  0  0  0  0
   -6.6044    1.6989   -1.5635 H   0  0  0  0  0  0  0  0  0  0  0  0
    4.2908   -4.0813    3.2191 O   0  5  0  0  0  0  0  0  0  0  0  0
  1  2  1  0  0  0  0
  1 28  1  0  0  0  0
  1 29  1  0  0  0  0
  1 30  1  0  0  0  0
  2  3  1  0  0  0  0
  2  4  1  0  0  0  0
  2  6  1  0  0  0  0
  4  5  2  0  0  0  0
  4 56  1  0  0  0  0
  6  7  1  0  0  0  0
  6 31  1  0  0  0  0
  7 11  1  0  0  0  0
  7  8  2  0  0  0  0
  8  9  1  0  0  0  0
  9 10  2  0  0  0  0
  9 12  1  0  0  0  0
 10 11  1  0  0  0  0
 10 32  1  0  0  0  0
 12 17  2  0  0  0  0
 12 13  1  0  0  0  0
 13 14  2  0  0  0  0
 13 33  1  0  0  0  0
 14 15  1  0  0  0  0
 14 24  1  0  0  0  0
 15 16  2  0  0  0  0
 15 34  1  0  0  0  0
 16 17  1  0  0  0  0
 16 20  1  0  0  0  0
 17 18  1  0  0  0  0
 18 19  1  0  0  0  0
 19 35  1  0  0  0  0
 19 36  1  0  0  0  0
 19 37  1  0  0  0  0
 20 21  1  0  0  0  0
 20 22  1  0  0  0  0
 20 23  1  0  0  0  0
 21 38  1  0  0  0  0
 21 39  1  0  0  0  0
 21 40  1  0  0  0  0
 22 41  1  0  0  0  0
 22 42  1  0  0  0  0
 22 43  1  0  0  0  0
 23 44  1  0  0  0  0
 23 45  1  0  0  0  0
 23 46  1  0  0  0  0
 24 25  1  0  0  0  0
 24 26  1  0  0  0  0
 24 27  1  0  0  0  0
 25 47  1  0  0  0  0
 25 48  1  0  0  0  0
 25 49  1  0  0  0  0
 26 50  1  0  0  0  0
 26 51  1  0  0  0  0
 26 52  1  0  0  0  0
 27 53  1  0  0  0  0
 27 54  1  0  0  0  0
 27 55  1  0  0  0  0
M  CHG  1  56  -1
M  END
$$$$
ZINC03856832
  -OEChem-08230709463D

 53 54  0     0  0  0  0  0  0999 V2000
   -2.0245    6.0646   -1.0670 C   0  0  0  0  0  0  0  0  0  0  0  0
   -2.3902    4.8294   -0.2415 C   0  0  0  0  0  0  0  0  0  0  0  0
   -3.4684    4.0277   -0.9733 C   0  0  0  0  0  0  0  0  0  0  0  0
   -2.9203    5.2681    1.1251 C   0  0  0  0  0  0  0  0  0  0  0  0
   -1.1663    3.9705   -0.0534 C   0  0  0  0  0  0  0  0  0  0  0  0
   -1.1567    2.6735   -0.5269 C   0  0  0  0  0  0  0  0  0  0  0  0
   -0.0283    1.8769   -0.3481 C   0  0  0  0  0  0  0  0  0  0  0  0
    1.0942    2.4011    0.3010 C   0  0  0  0  0  0  0  0  0  0  0  0
    1.0730    3.7054    0.7658 C   0  0  0  0  0  0  0  0  0  0  0  0
   -0.0546    4.4860    0.5882 C   0  0  0  0  0  0  0  0  0  0  0  0
    2.2798    4.2745    1.4663 C   0  0  0  0  0  0  0  0  0  0  0  0
    2.0475    5.7584    1.7581 C   0  0  0  0  0  0  0  0  0  0  0  0
    2.5067    3.5256    2.7810 C   0  0  0  0  0  0  0  0  0  0  0  0
    3.5105    4.1175    0.5709 C   0  0  0  0  0  0  0  0  0  0  0  0
    2.2018    1.6333    0.4747 O   0  0  0  0  0  0  0  0  0  0  0  0
    2.1389    0.6222    1.4826 C   0  0  0  0  0  0  0  0  0  0  0  0
   -0.0149    0.4812   -0.8491 C   0  0  0  0  0  0  0  0  0  0  0  0
   -1.1851   -0.1543   -1.1527 C   0  0  0  0  0  0  0  0  0  0  0  0
   -0.5717   -1.7467   -1.6859 S   0  0  0  0  0  0  0  0  0  0  0  0
    1.1676   -1.4083   -1.4526 C   0  0  0  0  0  0  0  0  0  0  0  0
    1.1381   -0.1635   -1.0128 N   0  0  0  0  0  0  0  0  0  0  0  0
    2.2584   -2.2318   -1.6791 N   0  0  0  0  0  0  0  0  0  0  0  0
    2.0567   -3.5931   -2.1815 C   0  0  0  0  0  0  0  0  0  0  0  0
    3.3923   -4.2728   -2.3406 C   0  0  0  0  0  0  0  0  0  0  0  0
    4.4083   -3.6809   -2.0630 O   0  0  0  0  0  0  0  0  0  0  0  0
   -1.6469    5.7521   -2.0406 H   0  0  0  0  0  0  0  0  0  0  0  0
   -2.9098    6.6858   -1.2031 H   0  0  0  0  0  0  0  0  0  0  0  0
   -1.2564    6.6358   -0.5456 H   0  0  0  0  0  0  0  0  0  0  0  0
   -3.7289    3.1477   -0.3852 H   0  0  0  0  0  0  0  0  0  0  0  0
   -4.3536    4.6489   -1.1093 H   0  0  0  0  0  0  0  0  0  0  0  0
   -3.0907    3.7152   -1.9469 H   0  0  0  0  0  0  0  0  0  0  0  0
   -2.1522    5.8392    1.6465 H   0  0  0  0  0  0  0  0  0  0  0  0
   -3.8056    5.8893    0.9891 H   0  0  0  0  0  0  0  0  0  0  0  0
   -3.1808    4.3881    1.7133 H   0  0  0  0  0  0  0  0  0  0  0  0
   -2.0248    2.2757   -1.0313 H   0  0  0  0  0  0  0  0  0  0  0  0
   -0.0673    5.5026    0.9523 H   0  0  0  0  0  0  0  0  0  0  0  0
    1.1707    5.8703    2.3960 H   0  0  0  0  0  0  0  0  0  0  0  0
    2.9204    6.1701    2.2648 H   0  0  0  0  0  0  0  0  0  0  0  0
    1.8858    6.2919    0.8214 H   0  0  0  0  0  0  0  0  0  0  0  0
    2.6722    2.4685    2.5731 H   0  0  0  0  0  0  0  0  0  0  0  0
    3.3796    3.9373    3.2877 H   0  0  0  0  0  0  0  0  0  0  0  0
    1.6300    3.6376    3.4189 H   0  0  0  0  0  0  0  0  0  0  0  0
    3.3725    4.6977   -0.3414 H   0  0  0  0  0  0  0  0  0  0  0  0
    4.3930    4.4768    1.1001 H   0  0  0  0  0  0  0  0  0  0  0  0
    3.6426    3.0659    0.3162 H   0  0  0  0  0  0  0  0  0  0  0  0
    3.1297    0.1918    1.6277 H   0  0  0  0  0  0  0  0  0  0  0  0
    1.7935    1.0626    2.4179 H   0  0  0  0  0  0  0  0  0  0  0  0
    1.4455   -0.1589    1.1709 H   0  0  0  0  0  0  0  0  0  0  0  0
   -2.2012    0.2060   -1.0884 H   0  0  0  0  0  0  0  0  0  0  0  0
    3.1557   -1.9070   -1.5050 H   0  0  0  0  0  0  0  0  0  0  0  0
    1.4454   -4.1543   -1.4748 H   0  0  0  0  0  0  0  0  0  0  0  0
    1.5521   -3.5531   -3.1468 H   0  0  0  0  0  0  0  0  0  0  0  0
    3.4531   -5.5359   -2.7909 O   0  5  0  0  0  0  0  0  0  0  0  0
  1  2  1  0  0  0  0
  1 26  1  0  0  0  0
  1 27  1  0  0  0  0
  1 28  1  0  0  0  0
  2  3  1  0  0  0  0
  2  4  1  0  0  0  0
  2  5  1  0  0  0  0
  3 29  1  0  0  0  0
  3 30  1  0  0  0  0
  3 31  1  0  0  0  0
  4 32  1  0  0  0  0
  4 33  1  0  0  0  0
  4 34  1  0  0  0  0
  5 10  2  0  0  0  0
  5  6  1  0  0  0  0
  6  7  2  0  0  0  0
  6 35  1  0  0  0  0
  7  8  1  0  0  0  0
  7 17  1  0  0  0  0
  8  9  2  0  0  0  0
  8 15  1  0  0  0  0
  9 10  1  0  0  0  0
  9 11  1  0  0  0  0
 10 36  1  0  0  0  0
 11 12  1  0  0  0  0
 11 13  1  0  0  0  0
 11 14  1  0  0  0  0
 12 37  1  0  0  0  0
 12 38  1  0  0  0  0
 12 39  1  0  0  0  0
 13 40  1  0  0  0  0
 13 41  1  0  0  0  0
 13 42  1  0  0  0  0
 14 43  1  0  0  0  0
 14 44  1  0  0  0  0
 14 45  1  0  0  0  0
 15 16  1  0  0  0  0
 16 46  1  0  0  0  0
 16 47  1  0  0  0  0
 16 48  1  0  0  0  0
 17 21  1  0  0  0  0
 17 18  2  0  0  0  0
 18 19  1  0  0  0  0
 18 49  1  0  0  0  0
 19 20  1  0  0  0  0
 20 21  2  0  0  0  0
 20 22  1  0  0  0  0
 22 23  1  0  0  0  0
 22 50  1  0  0  0  0
 23 24  1  0  0  0  0
 23 51  1  0  0  0  0
 23 52  1  0  0  0  0
 24 25  2  0  0  0  0
 24 53  1  0  0  0  0
M  CHG  1  53  -1
M  END
$$$$
ZINC03856833
  -OEChem-08230709463D

 60 61  0     1  0  0  0  0  0999 V2000
    1.1684   -4.4529    1.2496 C   0  0  0  0  0  0  0  0  0  0  0  0
    2.4176   -4.0392    2.0300 C   0  0  1  0  0  0  0  0  0  0  0  0
    3.1015   -3.5095    1.3669 H   0  0  0  0  0  0  0  0  0  0  0  0
    2.0158   -3.1217    3.1867 C   0  0  1  0  0  0  0  0  0  0  0  0
    1.3319   -3.6515    3.8498 H   0  0  0  0  0  0  0  0  0  0  0  0
    3.2462   -2.7142    3.9554 C   0  0  0  0  0  0  0  0  0  0  0  0
    3.5402   -1.5461    4.0499 O   0  0  0  0  0  0  0  0  0  0  0  0
    1.3540   -1.9275    2.6555 N   0  0  0  0  0  0  0  0  0  0  0  0
   -0.0033   -1.9528    2.3790 C   0  0  0  0  0  0  0  0  0  0  0  0
   -0.7763   -0.9944    1.9020 N   0  0  0  0  0  0  0  0  0  0  0  0
   -2.0756   -1.1972    1.6956 C   0  0  0  0  0  0  0  0  0  0  0  0
   -2.6166   -2.4167    1.9879 C   0  0  0  0  0  0  0  0  0  0  0  0
   -1.1714   -3.2915    2.5731 S   0  0  0  0  0  0  0  0  0  0  0  0
   -2.9280   -0.1084    1.1596 C   0  0  0  0  0  0  0  0  0  0  0  0
   -4.2849   -0.3287    0.9339 C   0  0  0  0  0  0  0  0  0  0  0  0
   -5.0741    0.6881    0.4353 C   0  0  0  0  0  0  0  0  0  0  0  0
   -4.5222    1.9263    0.1582 C   0  0  0  0  0  0  0  0  0  0  0  0
   -3.1781    2.1572    0.3839 C   0  0  0  0  0  0  0  0  0  0  0  0
   -2.3734    1.1441    0.8790 C   0  0  0  0  0  0  0  0  0  0  0  0
   -1.0510    1.3685    1.0964 O   0  0  0  0  0  0  0  0  0  0  0  0
   -0.1419    0.9119    0.0928 C   0  0  0  0  0  0  0  0  0  0  0  0
   -2.5863    3.5107    0.0858 C   0  0  0  0  0  0  0  0  0  0  0  0
   -3.6976    4.4690   -0.3474 C   0  0  0  0  0  0  0  0  0  0  0  0
   -1.9030    4.0564    1.3413 C   0  0  0  0  0  0  0  0  0  0  0  0
   -1.5575    3.3809   -1.0392 C   0  0  0  0  0  0  0  0  0  0  0  0
   -6.5419    0.4487    0.1915 C   0  0  0  0  0  0  0  0  0  0  0  0
   -6.8947   -0.9896    0.5758 C   0  0  0  0  0  0  0  0  0  0  0  0
   -7.3649    1.4198    1.0402 C   0  0  0  0  0  0  0  0  0  0  0  0
   -6.8561    0.6727   -1.2890 C   0  0  0  0  0  0  0  0  0  0  0  0
    3.0631   -5.2040    2.5482 O   0  0  0  0  0  0  0  0  0  0  0  0
    0.6760   -3.5644    0.8544 H   0  0  0  0  0  0  0  0  0  0  0  0
    1.4546   -5.1065    0.4256 H   0  0  0  0  0  0  0  0  0  0  0  0
    0.4845   -4.9826    1.9127 H   0  0  0  0  0  0  0  0  0  0  0  0
    1.8662   -1.1191    2.4974 H   0  0  0  0  0  0  0  0  0  0  0  0
   -3.6364   -2.7589    1.8908 H   0  0  0  0  0  0  0  0  0  0  0  0
   -4.7188   -1.2942    1.1484 H   0  0  0  0  0  0  0  0  0  0  0  0
   -5.1454    2.7174   -0.2321 H   0  0  0  0  0  0  0  0  0  0  0  0
   -0.1209   -0.1779    0.0903 H   0  0  0  0  0  0  0  0  0  0  0  0
    0.8564    1.2940    0.3059 H   0  0  0  0  0  0  0  0  0  0  0  0
   -0.4678    1.2713   -0.8833 H   0  0  0  0  0  0  0  0  0  0  0  0
   -4.4306    4.5614    0.4541 H   0  0  0  0  0  0  0  0  0  0  0  0
   -3.2696    5.4479   -0.5631 H   0  0  0  0  0  0  0  0  0  0  0  0
   -4.1844    4.0802   -1.2418 H   0  0  0  0  0  0  0  0  0  0  0  0
   -1.1113    3.3737    1.6499 H   0  0  0  0  0  0  0  0  0  0  0  0
   -1.4750    5.0353    1.1256 H   0  0  0  0  0  0  0  0  0  0  0  0
   -2.6360    4.1488    2.1427 H   0  0  0  0  0  0  0  0  0  0  0  0
   -1.9899    2.8134   -1.8633 H   0  0  0  0  0  0  0  0  0  0  0  0
   -1.2758    4.3737   -1.3902 H   0  0  0  0  0  0  0  0  0  0  0  0
   -0.6740    2.8633   -0.6657 H   0  0  0  0  0  0  0  0  0  0  0  0
   -6.6708   -1.1492    1.6305 H   0  0  0  0  0  0  0  0  0  0  0  0
   -7.9563   -1.1628    0.3994 H   0  0  0  0  0  0  0  0  0  0  0  0
   -6.3083   -1.6815   -0.0289 H   0  0  0  0  0  0  0  0  0  0  0  0
   -7.1135    2.4445    0.7664 H   0  0  0  0  0  0  0  0  0  0  0  0
   -8.4265    1.2467    0.8638 H   0  0  0  0  0  0  0  0  0  0  0  0
   -7.1410    1.2602    2.0949 H   0  0  0  0  0  0  0  0  0  0  0  0
   -6.2697   -0.0192   -1.8937 H   0  0  0  0  0  0  0  0  0  0  0  0
   -7.9177    0.4995   -1.4654 H   0  0  0  0  0  0  0  0  0  0  0  0
   -6.6047    1.6974   -1.5628 H   0  0  0  0  0  0  0  0  0  0  0  0
    3.8647   -5.0167    3.0555 H   0  0  0  0  0  0  0  0  0  0  0  0
    4.0156   -3.6490    4.5352 O   0  5  0  0  0  0  0  0  0  0  0  0
  1  2  1  0  0  0  0
  1 31  1  0  0  0  0
  1 32  1  0  0  0  0
  1 33  1  0  0  0  0
  2  3  1  0  0  0  0
  2  4  1  0  0  0  0
  2 30  1  0  0  0  0
  4  5  1  0  0  0  0
  4  6  1  0  0  0  0
  4  8  1  0  0  0  0
  6  7  2  0  0  0  0
  6 60  1  0  0  0  0
  8  9  1  0  0  0  0
  8 34  1  0  0  0  0
  9 13  1  0  0  0  0
  9 10  2  0  0  0  0
 10 11  1  0  0  0  0
 11 12  2  0  0  0  0
 11 14  1  0  0  0  0
 12 13  1  0  0  0  0
 12 35  1  0  0  0  0
 14 19  2  0  0  0  0
 14 15  1  0  0  0  0
 15 16  2  0  0  0  0
 15 36  1  0  0  0  0
 16 17  1  0  0  0  0
 16 26  1  0  0  0  0
 17 18  2  0  0  0  0
 17 37  1  0  0  0  0
 18 19  1  0  0  0  0
 18 22  1  0  0  0  0
 19 20  1  0  0  0  0
 20 21  1  0  0  0  0
 21 38  1  0  0  0  0
 21 39  1  0  0  0  0
 21 40  1  0  0  0  0
 22 23  1  0  0  0  0
 22 24  1  0  0  0  0
 22 25  1  0  0  0  0
 23 41  1  0  0  0  0
 23 42  1  0  0  0  0
 23 43  1  0  0  0  0
 24 44  1  0  0  0  0
 24 45  1  0  0  0  0
 24 46  1  0  0  0  0
 25 47  1  0  0  0  0
 25 48  1  0  0  0  0
 25 49  1  0  0  0  0
 26 27  1  0  0  0  0
 26 28  1  0  0  0  0
 26 29  1  0  0  0  0
 27 50  1  0  0  0  0
 27 51  1  0  0  0  0
 27 52  1  0  0  0  0
 28 53  1  0  0  0  0
 28 54  1  0  0  0  0
 28 55  1  0  0  0  0
 29 56  1  0  0  0  0
 29 57  1  0  0  0  0
 29 58  1  0  0  0  0
 30 59  1  0  0  0  0
M  CHG  1  60  -1
M  END
$$$$
ZINC03856834
  -OEChem-08230709463D

 60 61  0     1  0  0  0  0  0999 V2000
   -1.6352    1.6400   -1.7524 C   0  0  0  0  0  0  0  0  0  0  0  0
   -0.3447    1.9901   -2.4960 C   0  0  2  0  0  0  0  0  0  0  0  0
   -0.4731    2.9369   -3.0206 H   0  0  0  0  0  0  0  0  0  0  0  0
   -0.0229    0.8870   -3.5062 C   0  0  1  0  0  0  0  0  0  0  0  0
   -0.7982    0.8580   -4.2719 H   0  0  0  0  0  0  0  0  0  0  0  0
    1.3096    1.1695   -4.1510 C   0  0  0  0  0  0  0  0  0  0  0  0
    2.2124    0.3733   -4.0461 O   0  0  0  0  0  0  0  0  0  0  0  0
    0.0319   -0.4049   -2.8176 N   0  0  0  0  0  0  0  0  0  0  0  0
   -0.2094   -1.5748   -3.5195 C   0  0  0  0  0  0  0  0  0  0  0  0
   -0.2025   -2.8232   -3.0892 N   0  0  0  0  0  0  0  0  0  0  0  0
   -0.4638   -3.8361   -3.9125 C   0  0  0  0  0  0  0  0  0  0  0  0
   -0.7325   -3.5774   -5.2264 C   0  0  0  0  0  0  0  0  0  0  0  0
   -0.6046   -1.7943   -5.2486 S   0  0  0  0  0  0  0  0  0  0  0  0
   -0.4574   -5.2312   -3.4096 C   0  0  0  0  0  0  0  0  0  0  0  0
   -0.7422   -6.2873   -4.2723 C   0  0  0  0  0  0  0  0  0  0  0  0
   -0.7293   -7.5845   -3.8006 C   0  0  0  0  0  0  0  0  0  0  0  0
   -0.4456   -7.8393   -2.4706 C   0  0  0  0  0  0  0  0  0  0  0  0
   -0.1673   -6.7982   -1.6048 C   0  0  0  0  0  0  0  0  0  0  0  0
   -0.1712   -5.4920   -2.0661 C   0  0  0  0  0  0  0  0  0  0  0  0
    0.1019   -4.4678   -1.2158 O   0  0  0  0  0  0  0  0  0  0  0  0
   -1.0118   -3.7237   -0.7177 C   0  0  0  0  0  0  0  0  0  0  0  0
    0.1411   -7.0845   -0.1577 C   0  0  0  0  0  0  0  0  0  0  0  0
    0.1725   -8.5975    0.0673 C   0  0  0  0  0  0  0  0  0  0  0  0
    1.5031   -6.4871    0.2013 C   0  0  0  0  0  0  0  0  0  0  0  0
   -0.9392   -6.4596    0.7273 C   0  0  0  0  0  0  0  0  0  0  0  0
   -1.0309   -8.7267   -4.7363 C   0  0  0  0  0  0  0  0  0  0  0  0
   -2.2599   -9.4868   -4.2336 C   0  0  0  0  0  0  0  0  0  0  0  0
   -1.3081   -8.1785   -6.1375 C   0  0  0  0  0  0  0  0  0  0  0  0
    0.1691   -9.6744   -4.7876 C   0  0  0  0  0  0  0  0  0  0  0  0
    0.7283    2.1062   -1.5594 O   0  0  0  0  0  0  0  0  0  0  0  0
   -1.5068    0.6932   -1.2278 H   0  0  0  0  0  0  0  0  0  0  0  0
   -1.8645    2.4259   -1.0327 H   0  0  0  0  0  0  0  0  0  0  0  0
   -2.4537    1.5515   -2.4668 H   0  0  0  0  0  0  0  0  0  0  0  0
    0.2371   -0.4412   -1.8702 H   0  0  0  0  0  0  0  0  0  0  0  0
   -0.9593   -4.2616   -6.0306 H   0  0  0  0  0  0  0  0  0  0  0  0
   -0.9687   -6.0916   -5.3100 H   0  0  0  0  0  0  0  0  0  0  0  0
   -0.4413   -8.8563   -2.1072 H   0  0  0  0  0  0  0  0  0  0  0  0
   -0.6832   -3.0805    0.0986 H   0  0  0  0  0  0  0  0  0  0  0  0
   -1.4268   -3.1113   -1.5183 H   0  0  0  0  0  0  0  0  0  0  0  0
   -1.7749   -4.4116   -0.3537 H   0  0  0  0  0  0  0  0  0  0  0  0
    0.9422   -9.0427   -0.5632 H   0  0  0  0  0  0  0  0  0  0  0  0
    0.3956   -8.8046    1.1140 H   0  0  0  0  0  0  0  0  0  0  0  0
   -0.7978   -9.0231   -0.1885 H   0  0  0  0  0  0  0  0  0  0  0  0
    1.4807   -5.4091    0.0410 H   0  0  0  0  0  0  0  0  0  0  0  0
    1.7262   -6.6942    1.2480 H   0  0  0  0  0  0  0  0  0  0  0  0
    2.2728   -6.9323   -0.4292 H   0  0  0  0  0  0  0  0  0  0  0  0
   -1.9219   -6.6739    0.3072 H   0  0  0  0  0  0  0  0  0  0  0  0
   -0.8739   -6.8789    1.7313 H   0  0  0  0  0  0  0  0  0  0  0  0
   -0.7915   -5.3806    0.7739 H   0  0  0  0  0  0  0  0  0  0  0  0
   -3.1148   -8.8116   -4.1970 H   0  0  0  0  0  0  0  0  0  0  0  0
   -2.4781  -10.3129   -4.9103 H   0  0  0  0  0  0  0  0  0  0  0  0
   -2.0624   -9.8773   -3.2353 H   0  0  0  0  0  0  0  0  0  0  0  0
   -0.4326   -7.6370   -6.4956 H   0  0  0  0  0  0  0  0  0  0  0  0
   -1.5263   -9.0047   -6.8143 H   0  0  0  0  0  0  0  0  0  0  0  0
   -2.1631   -7.5033   -6.1010 H   0  0  0  0  0  0  0  0  0  0  0  0
    0.3667  -10.0649   -3.7893 H   0  0  0  0  0  0  0  0  0  0  0  0
   -0.0490  -10.5005   -5.4643 H   0  0  0  0  0  0  0  0  0  0  0  0
    1.0447   -9.1329   -5.1457 H   0  0  0  0  0  0  0  0  0  0  0  0
    0.5920    2.7883   -0.8877 H   0  0  0  0  0  0  0  0  0  0  0  0
    1.4935    2.3055   -4.8418 O   0  5  0  0  0  0  0  0  0  0  0  0
  1  2  1  0  0  0  0
  1 31  1  0  0  0  0
  1 32  1  0  0  0  0
  1 33  1  0  0  0  0
  2  3  1  0  0  0  0
  2  4  1  0  0  0  0
  2 30  1  0  0  0  0
  4  5  1  0  0  0  0
  4  6  1  0  0  0  0
  4  8  1  0  0  0  0
  6  7  2  0  0  0  0
  6 60  1  0  0  0  0
  8  9  1  0  0  0  0
  8 34  1  0  0  0  0
  9 13  1  0  0  0  0
  9 10  2  0  0  0  0
 10 11  1  0  0  0  0
 11 12  2  0  0  0  0
 11 14  1  0  0  0  0
 12 13  1  0  0  0  0
 12 35  1  0  0  0  0
 14 19  2  0  0  0  0
 14 15  1  0  0  0  0
 15 16  2  0  0  0  0
 15 36  1  0  0  0  0
 16 17  1  0  0  0  0
 16 26  1  0  0  0  0
 17 18  2  0  0  0  0
 17 37  1  0  0  0  0
 18 19  1  0  0  0  0
 18 22  1  0  0  0  0
 19 20  1  0  0  0  0
 20 21  1  0  0  0  0
 21 38  1  0  0  0  0
 21 39  1  0  0  0  0
 21 40  1  0  0  0  0
 22 23  1  0  0  0  0
 22 24  1  0  0  0  0
 22 25  1  0  0  0  0
 23 41  1  0  0  0  0
 23 42  1  0  0  0  0
 23 43  1  0  0  0  0
 24 44  1  0  0  0  0
 24 45  1  0  0  0  0
 24 46  1  0  0  0  0
 25 47  1  0  0  0  0
 25 48  1  0  0  0  0
 25 49  1  0  0  0  0
 26 27  1  0  0  0  0
 26 28  1  0  0  0  0
 26 29  1  0  0  0  0
 27 50  1  0  0  0  0
 27 51  1  0  0  0  0
 27 52  1  0  0  0  0
 28 53  1  0  0  0  0
 28 54  1  0  0  0  0
 28 55  1  0  0  0  0
 29 56  1  0  0  0  0
 29 57  1  0  0  0  0
 29 58  1  0  0  0  0
 30 59  1  0  0  0  0
M  CHG  1  60  -1
M  END
$$$$
ZINC03856835
  -OEChem-08230709463D

 60 61  0     1  0  0  0  0  0999 V2000
    5.4063    1.1964   -0.9547 C   0  0  0  0  0  0  0  0  0  0  0  0
    3.9564    1.2522   -1.4400 C   0  0  1  0  0  0  0  0  0  0  0  0
    3.9350    1.5558   -2.4867 H   0  0  0  0  0  0  0  0  0  0  0  0
    3.3172   -0.1305   -1.2969 C   0  0  2  0  0  0  0  0  0  0  0  0
    3.8733   -0.8517   -1.8958 H   0  0  0  0  0  0  0  0  0  0  0  0
    1.8891   -0.0756   -1.7749 C   0  0  0  0  0  0  0  0  0  0  0  0
    0.9878   -0.3492   -1.0182 O   0  0  0  0  0  0  0  0  0  0  0  0
    3.3459   -0.5385    0.1098 N   0  0  0  0  0  0  0  0  0  0  0  0
    4.4737   -1.1525    0.6301 C   0  0  0  0  0  0  0  0  0  0  0  0
    4.6978   -1.5849    1.8575 N   0  0  0  0  0  0  0  0  0  0  0  0
    5.8526   -2.1610    2.1838 C   0  0  0  0  0  0  0  0  0  0  0  0
    6.8245   -2.2958    1.2337 C   0  0  0  0  0  0  0  0  0  0  0  0
    6.0132   -1.5617   -0.1802 S   0  0  0  0  0  0  0  0  0  0  0  0
    6.0837   -2.6459    3.5661 C   0  0  0  0  0  0  0  0  0  0  0  0
    7.2897   -3.2581    3.9004 C   0  0  0  0  0  0  0  0  0  0  0  0
    7.5023   -3.7022    5.1900 C   0  0  0  0  0  0  0  0  0  0  0  0
    6.5168   -3.5527    6.1496 C   0  0  0  0  0  0  0  0  0  0  0  0
    5.3144   -2.9518    5.8270 C   0  0  0  0  0  0  0  0  0  0  0  0
    5.0901   -2.4960    4.5383 C   0  0  0  0  0  0  0  0  0  0  0  0
    3.9083   -1.9056    4.2200 O   0  0  0  0  0  0  0  0  0  0  0  0
    2.9500   -2.7056    3.5245 C   0  0  0  0  0  0  0  0  0  0  0  0
    4.2467   -2.7921    6.8784 C   0  0  0  0  0  0  0  0  0  0  0  0
    4.7784   -3.2882    8.2246 C   0  0  0  0  0  0  0  0  0  0  0  0
    3.8622   -1.3158    6.9946 C   0  0  0  0  0  0  0  0  0  0  0  0
    3.0156   -3.6102    6.4835 C   0  0  0  0  0  0  0  0  0  0  0  0
    8.8100   -4.3578    5.5523 C   0  0  0  0  0  0  0  0  0  0  0  0
    8.5475   -5.7839    6.0402 C   0  0  0  0  0  0  0  0  0  0  0  0
    9.7182   -4.3987    4.3217 C   0  0  0  0  0  0  0  0  0  0  0  0
    9.4918   -3.5562    6.6629 C   0  0  0  0  0  0  0  0  0  0  0  0
    3.2273    2.1976   -0.6548 O   0  0  0  0  0  0  0  0  0  0  0  0
    5.9625    0.4753   -1.5536 H   0  0  0  0  0  0  0  0  0  0  0  0
    5.8617    2.1815   -1.0567 H   0  0  0  0  0  0  0  0  0  0  0  0
    5.4277    0.8929    0.0920 H   0  0  0  0  0  0  0  0  0  0  0  0
    2.5754   -0.3788    0.6770 H   0  0  0  0  0  0  0  0  0  0  0  0
    7.8114   -2.7268    1.3144 H   0  0  0  0  0  0  0  0  0  0  0  0
    8.0591   -3.3810    3.1525 H   0  0  0  0  0  0  0  0  0  0  0  0
    6.6879   -3.9069    7.1555 H   0  0  0  0  0  0  0  0  0  0  0  0
    3.2863   -2.8672    2.5004 H   0  0  0  0  0  0  0  0  0  0  0  0
    2.8448   -3.6665    4.0282 H   0  0  0  0  0  0  0  0  0  0  0  0
    1.9879   -2.1934    3.5145 H   0  0  0  0  0  0  0  0  0  0  0  0
    5.6554   -2.7053    8.5059 H   0  0  0  0  0  0  0  0  0  0  0  0
    4.0061   -3.1726    8.9851 H   0  0  0  0  0  0  0  0  0  0  0  0
    5.0523   -4.3399    8.1418 H   0  0  0  0  0  0  0  0  0  0  0  0
    3.4834   -0.9624    6.0356 H   0  0  0  0  0  0  0  0  0  0  0  0
    3.0899   -1.2002    7.7551 H   0  0  0  0  0  0  0  0  0  0  0  0
    4.7393   -0.7329    7.2760 H   0  0  0  0  0  0  0  0  0  0  0  0
    3.3290   -4.5973    6.1438 H   0  0  0  0  0  0  0  0  0  0  0  0
    2.3570   -3.7148    7.3458 H   0  0  0  0  0  0  0  0  0  0  0  0
    2.4837   -3.1012    5.6797 H   0  0  0  0  0  0  0  0  0  0  0  0
    8.0618   -6.3550    5.2490 H   0  0  0  0  0  0  0  0  0  0  0  0
    9.4934   -6.2581    6.3023 H   0  0  0  0  0  0  0  0  0  0  0  0
    7.9005   -5.7548    6.9169 H   0  0  0  0  0  0  0  0  0  0  0  0
    9.9051   -3.3827    3.9742 H   0  0  0  0  0  0  0  0  0  0  0  0
   10.6640   -4.8729    4.5838 H   0  0  0  0  0  0  0  0  0  0  0  0
    9.2324   -4.9698    3.5305 H   0  0  0  0  0  0  0  0  0  0  0  0
    8.8448   -3.5270    7.5396 H   0  0  0  0  0  0  0  0  0  0  0  0
   10.4376   -4.0303    6.9250 H   0  0  0  0  0  0  0  0  0  0  0  0
    9.6788   -2.5401    6.3154 H   0  0  0  0  0  0  0  0  0  0  0  0
    3.2044    1.9903    0.2894 H   0  0  0  0  0  0  0  0  0  0  0  0
    1.6183    0.2773   -3.0414 O   0  5  0  0  0  0  0  0  0  0  0  0
  1  2  1  0  0  0  0
  1 31  1  0  0  0  0
  1 32  1  0  0  0  0
  1 33  1  0  0  0  0
  2  3  1  0  0  0  0
  2  4  1  0  0  0  0
  2 30  1  0  0  0  0
  4  5  1  0  0  0  0
  4  6  1  0  0  0  0
  4  8  1  0  0  0  0
  6  7  2  0  0  0  0
  6 60  1  0  0  0  0
  8  9  1  0  0  0  0
  8 34  1  0  0  0  0
  9 13  1  0  0  0  0
  9 10  2  0  0  0  0
 10 11  1  0  0  0  0
 11 12  2  0  0  0  0
 11 14  1  0  0  0  0
 12 13  1  0  0  0  0
 12 35  1  0  0  0  0
 14 19  2  0  0  0  0
 14 15  1  0  0  0  0
 15 16  2  0  0  0  0
 15 36  1  0  0  0  0
 16 17  1  0  0  0  0
 16 26  1  0  0  0  0
 17 18  2  0  0  0  0
 17 37  1  0  0  0  0
 18 19  1  0  0  0  0
 18 22  1  0  0  0  0
 19 20  1  0  0  0  0
 20 21  1  0  0  0  0
 21 38  1  0  0  0  0
 21 39  1  0  0  0  0
 21 40  1  0  0  0  0
 22 23  1  0  0  0  0
 22 24  1  0  0  0  0
 22 25  1  0  0  0  0
 23 41  1  0  0  0  0
 23 42  1  0  0  0  0
 23 43  1  0  0  0  0
 24 44  1  0  0  0  0
 24 45  1  0  0  0  0
 24 46  1  0  0  0  0
 25 47  1  0  0  0  0
 25 48  1  0  0  0  0
 25 49  1  0  0  0  0
 26 27  1  0  0  0  0
 26 28  1  0  0  0  0
 26 29  1  0  0  0  0
 27 50  1  0  0  0  0
 27 51  1  0  0  0  0
 27 52  1  0  0  0  0
 28 53  1  0  0  0  0
 28 54  1  0  0  0  0
 28 55  1  0  0  0  0
 29 56  1  0  0  0  0
 29 57  1  0  0  0  0
 29 58  1  0  0  0  0
 30 59  1  0  0  0  0
M  CHG  1  60  -1
M  END
$$$$
ZINC03856836
  -OEChem-08230709463D

 60 61  0     1  0  0  0  0  0999 V2000
   -0.2311    3.2819    3.6767 C   0  0  0  0  0  0  0  0  0  0  0  0
   -1.2648    2.4777    2.8858 C   0  0  2  0  0  0  0  0  0  0  0  0
   -2.2355    2.9690    2.9521 H   0  0  0  0  0  0  0  0  0  0  0  0
   -1.3667    1.0663    3.4676 C   0  0  2  0  0  0  0  0  0  0  0  0
   -1.5867    1.1277    4.5334 H   0  0  0  0  0  0  0  0  0  0  0  0
   -0.0597    0.3439    3.2652 C   0  0  0  0  0  0  0  0  0  0  0  0
   -0.0275   -0.6773    2.6202 O   0  0  0  0  0  0  0  0  0  0  0  0
   -2.4393    0.3347    2.7889 N   0  0  0  0  0  0  0  0  0  0  0  0
   -3.0738   -0.7169    3.4300 C   0  0  0  0  0  0  0  0  0  0  0  0
   -4.0505   -1.4923    2.9959 N   0  0  0  0  0  0  0  0  0  0  0  0
   -4.5451   -2.4666    3.7562 C   0  0  0  0  0  0  0  0  0  0  0  0
   -4.0316   -2.6653    5.0062 C   0  0  0  0  0  0  0  0  0  0  0  0
   -2.7817   -1.3881    5.0605 S   0  0  0  0  0  0  0  0  0  0  0  0
   -5.6418   -3.3277    3.2512 C   0  0  0  0  0  0  0  0  0  0  0  0
   -6.1449   -4.3569    4.0439 C   0  0  0  0  0  0  0  0  0  0  0  0
   -7.1694   -5.1522    3.5713 C   0  0  0  0  0  0  0  0  0  0  0  0
   -7.6912   -4.9384    2.3078 C   0  0  0  0  0  0  0  0  0  0  0  0
   -7.1956   -3.9232    1.5110 C   0  0  0  0  0  0  0  0  0  0  0  0
   -6.1716   -3.1139    1.9750 C   0  0  0  0  0  0  0  0  0  0  0  0
   -5.6834   -2.1160    1.1925 O   0  0  0  0  0  0  0  0  0  0  0  0
   -4.4502   -2.3668    0.5154 C   0  0  0  0  0  0  0  0  0  0  0  0
   -7.7702   -3.6964    0.1365 C   0  0  0  0  0  0  0  0  0  0  0  0
   -8.9394   -4.6564   -0.0922 C   0  0  0  0  0  0  0  0  0  0  0  0
   -8.2655   -2.2533    0.0225 C   0  0  0  0  0  0  0  0  0  0  0  0
   -6.6892   -3.9493   -0.9163 C   0  0  0  0  0  0  0  0  0  0  0  0
   -7.7175   -6.2610    4.4322 C   0  0  0  0  0  0  0  0  0  0  0  0
   -7.5266   -7.6016    3.7199 C   0  0  0  0  0  0  0  0  0  0  0  0
   -6.9740   -6.2835    5.7693 C   0  0  0  0  0  0  0  0  0  0  0  0
   -9.2082   -6.0237    4.6815 C   0  0  0  0  0  0  0  0  0  0  0  0
   -0.8624    2.4007    1.5168 O   0  0  0  0  0  0  0  0  0  0  0  0
    0.7396    2.7906    3.6105 H   0  0  0  0  0  0  0  0  0  0  0  0
   -0.1585    4.2874    3.2623 H   0  0  0  0  0  0  0  0  0  0  0  0
   -0.5380    3.3407    4.7210 H   0  0  0  0  0  0  0  0  0  0  0  0
   -2.7052    0.5865    1.8907 H   0  0  0  0  0  0  0  0  0  0  0  0
   -4.3027   -3.3958    5.7540 H   0  0  0  0  0  0  0  0  0  0  0  0
   -5.7367   -4.5297    5.0287 H   0  0  0  0  0  0  0  0  0  0  0  0
   -8.4896   -5.5672    1.9424 H   0  0  0  0  0  0  0  0  0  0  0  0
   -4.4981   -3.3369    0.0207 H   0  0  0  0  0  0  0  0  0  0  0  0
   -4.2788   -1.5881   -0.2277 H   0  0  0  0  0  0  0  0  0  0  0  0
   -3.6331   -2.3668    1.2368 H   0  0  0  0  0  0  0  0  0  0  0  0
   -9.7095   -4.4762    0.6578 H   0  0  0  0  0  0  0  0  0  0  0  0
   -9.3550   -4.4924   -1.0864 H   0  0  0  0  0  0  0  0  0  0  0  0
   -8.5865   -5.6845   -0.0110 H   0  0  0  0  0  0  0  0  0  0  0  0
   -7.4325   -1.5693    0.1855 H   0  0  0  0  0  0  0  0  0  0  0  0
   -8.6811   -2.0892   -0.9717 H   0  0  0  0  0  0  0  0  0  0  0  0
   -9.0356   -2.0731    0.7725 H   0  0  0  0  0  0  0  0  0  0  0  0
   -6.1534   -4.8669   -0.6737 H   0  0  0  0  0  0  0  0  0  0  0  0
   -7.1536   -4.0482   -1.8974 H   0  0  0  0  0  0  0  0  0  0  0  0
   -5.9905   -3.1127   -0.9278 H   0  0  0  0  0  0  0  0  0  0  0  0
   -6.4645   -7.7707    3.5423 H   0  0  0  0  0  0  0  0  0  0  0  0
   -7.9230   -8.4036    4.3426 H   0  0  0  0  0  0  0  0  0  0  0  0
   -8.0562   -7.5856    2.7674 H   0  0  0  0  0  0  0  0  0  0  0  0
   -7.1100   -5.3285    6.2767 H   0  0  0  0  0  0  0  0  0  0  0  0
   -7.3705   -7.0855    6.3920 H   0  0  0  0  0  0  0  0  0  0  0  0
   -5.9120   -6.4526    5.5916 H   0  0  0  0  0  0  0  0  0  0  0  0
   -9.7379   -6.0077    3.7290 H   0  0  0  0  0  0  0  0  0  0  0  0
   -9.6047   -6.8257    5.3042 H   0  0  0  0  0  0  0  0  0  0  0  0
   -9.3442   -5.0686    5.1889 H   0  0  0  0  0  0  0  0  0  0  0  0
   -0.0051    1.9740    1.3822 H   0  0  0  0  0  0  0  0  0  0  0  0
    1.0695    0.8379    3.7968 O   0  5  0  0  0  0  0  0  0  0  0  0
  1  2  1  0  0  0  0
  1 31  1  0  0  0  0
  1 32  1  0  0  0  0
  1 33  1  0  0  0  0
  2  3  1  0  0  0  0
  2  4  1  0  0  0  0
  2 30  1  0  0  0  0
  4  5  1  0  0  0  0
  4  6  1  0  0  0  0
  4  8  1  0  0  0  0
  6  7  2  0  0  0  0
  6 60  1  0  0  0  0
  8  9  1  0  0  0  0
  8 34  1  0  0  0  0
  9 13  1  0  0  0  0
  9 10  2  0  0  0  0
 10 11  1  0  0  0  0
 11 12  2  0  0  0  0
 11 14  1  0  0  0  0
 12 13  1  0  0  0  0
 12 35  1  0  0  0  0
 14 19  2  0  0  0  0
 14 15  1  0  0  0  0
 15 16  2  0  0  0  0
 15 36  1  0  0  0  0
 16 17  1  0  0  0  0
 16 26  1  0  0  0  0
 17 18  2  0  0  0  0
 17 37  1  0  0  0  0
 18 19  1  0  0  0  0
 18 22  1  0  0  0  0
 19 20  1  0  0  0  0
 20 21  1  0  0  0  0
 21 38  1  0  0  0  0
 21 39  1  0  0  0  0
 21 40  1  0  0  0  0
 22 23  1  0  0  0  0
 22 24  1  0  0  0  0
 22 25  1  0  0  0  0
 23 41  1  0  0  0  0
 23 42  1  0  0  0  0
 23 43  1  0  0  0  0
 24 44  1  0  0  0  0
 24 45  1  0  0  0  0
 24 46  1  0  0  0  0
 25 47  1  0  0  0  0
 25 48  1  0  0  0  0
 25 49  1  0  0  0  0
 26 27  1  0  0  0  0
 26 28  1  0  0  0  0
 26 29  1  0  0  0  0
 27 50  1  0  0  0  0
 27 51  1  0  0  0  0
 27 52  1  0  0  0  0
 28 53  1  0  0  0  0
 28 54  1  0  0  0  0
 28 55  1  0  0  0  0
 29 56  1  0  0  0  0
 29 57  1  0  0  0  0
 29 58  1  0  0  0  0
 30 59  1  0  0  0  0
M  CHG  1  60  -1
M  END
$$$$
ZINC03856837
  -OEChem-08230709463D

 57 58  0     1  0  0  0  0  0999 V2000
   -6.8875   -0.9967    0.5787 C   0  0  0  0  0  0  0  0  0  0  0  0
   -6.5384    0.4427    0.1950 C   0  0  0  0  0  0  0  0  0  0  0  0
   -7.3620    1.4114    1.0460 C   0  0  0  0  0  0  0  0  0  0  0  0
   -6.8560    0.6673   -1.2848 C   0  0  0  0  0  0  0  0  0  0  0  0
   -5.0708    0.6850    0.4362 C   0  0  0  0  0  0  0  0  0  0  0  0
   -4.2782   -0.3308    0.9326 C   0  0  0  0  0  0  0  0  0  0  0  0
   -2.9217   -0.1078    1.1559 C   0  0  0  0  0  0  0  0  0  0  0  0
   -2.3702    1.1464    0.8752 C   0  0  0  0  0  0  0  0  0  0  0  0
   -3.1778    2.1580    0.3831 C   0  0  0  0  0  0  0  0  0  0  0  0
   -4.5222    1.9242    0.1592 C   0  0  0  0  0  0  0  0  0  0  0  0
   -2.5895    3.5130    0.0850 C   0  0  0  0  0  0  0  0  0  0  0  0
   -3.7036    4.4692   -0.3455 C   0  0  0  0  0  0  0  0  0  0  0  0
   -1.9052    4.0592    1.3397 C   0  0  0  0  0  0  0  0  0  0  0  0
   -1.5624    3.3864   -1.0419 C   0  0  0  0  0  0  0  0  0  0  0  0
   -1.0477    1.3732    1.0899 O   0  0  0  0  0  0  0  0  0  0  0  0
   -0.1400    0.9196    0.0837 C   0  0  0  0  0  0  0  0  0  0  0  0
   -2.0660   -1.1953    1.6894 C   0  0  0  0  0  0  0  0  0  0  0  0
   -2.6039   -2.4161    1.9820 C   0  0  0  0  0  0  0  0  0  0  0  0
   -1.1557   -3.2883    2.5636 S   0  0  0  0  0  0  0  0  0  0  0  0
    0.0092   -1.9472    2.3680 C   0  0  0  0  0  0  0  0  0  0  0  0
   -0.7667   -0.9900    1.8932 N   0  0  0  0  0  0  0  0  0  0  0  0
    1.3670   -1.9190    2.6424 N   0  0  0  0  0  0  0  0  0  0  0  0
    2.0323   -3.1123    3.1712 C   0  0  1  0  0  0  0  0  0  0  0  0
    1.5802   -4.0034    2.7357 H   0  0  0  0  0  0  0  0  0  0  0  0
    3.5192   -3.0680    2.8134 C   0  0  0  0  0  0  0  0  0  0  0  0
    4.1366   -1.9645    3.4792 O   0  0  0  0  0  0  0  0  0  0  0  0
    1.8771   -3.1515    4.6697 C   0  0  0  0  0  0  0  0  0  0  0  0
    1.2728   -2.2728    5.2376 O   0  0  0  0  0  0  0  0  0  0  0  0
   -6.6613   -1.1567    1.6329 H   0  0  0  0  0  0  0  0  0  0  0  0
   -7.9491   -1.1720    0.4042 H   0  0  0  0  0  0  0  0  0  0  0  0
   -6.3008   -1.6869   -0.0276 H   0  0  0  0  0  0  0  0  0  0  0  0
   -7.1133    2.4368    0.7727 H   0  0  0  0  0  0  0  0  0  0  0  0
   -8.4235    1.2361    0.8716 H   0  0  0  0  0  0  0  0  0  0  0  0
   -7.1358    1.2514    2.1002 H   0  0  0  0  0  0  0  0  0  0  0  0
   -6.2693   -0.0229   -1.8911 H   0  0  0  0  0  0  0  0  0  0  0  0
   -7.9175    0.4920   -1.4593 H   0  0  0  0  0  0  0  0  0  0  0  0
   -6.6073    1.6927   -1.5581 H   0  0  0  0  0  0  0  0  0  0  0  0
   -4.7097   -1.2974    1.1471 H   0  0  0  0  0  0  0  0  0  0  0  0
   -5.1478    2.7143   -0.2292 H   0  0  0  0  0  0  0  0  0  0  0  0
   -4.4354    4.5594    0.4573 H   0  0  0  0  0  0  0  0  0  0  0  0
   -3.2781    5.4493   -0.5611 H   0  0  0  0  0  0  0  0  0  0  0  0
   -4.1911    4.0801   -1.2394 H   0  0  0  0  0  0  0  0  0  0  0  0
   -1.1115    3.3780    1.6464 H   0  0  0  0  0  0  0  0  0  0  0  0
   -1.4797    5.0393    1.1241 H   0  0  0  0  0  0  0  0  0  0  0  0
   -2.6369    4.1494    2.1426 H   0  0  0  0  0  0  0  0  0  0  0  0
   -1.9952    2.8190   -1.8659 H   0  0  0  0  0  0  0  0  0  0  0  0
   -1.2830    4.3800   -1.3922 H   0  0  0  0  0  0  0  0  0  0  0  0
   -0.6773    2.8699   -0.6704 H   0  0  0  0  0  0  0  0  0  0  0  0
   -0.1167   -0.1702    0.0801 H   0  0  0  0  0  0  0  0  0  0  0  0
    0.8580    1.3036    0.2949 H   0  0  0  0  0  0  0  0  0  0  0  0
   -0.4690    1.2792   -0.8912 H   0  0  0  0  0  0  0  0  0  0  0  0
   -3.6232   -2.7603    1.8867 H   0  0  0  0  0  0  0  0  0  0  0  0
    1.8770   -1.1092    2.4844 H   0  0  0  0  0  0  0  0  0  0  0  0
    3.9966   -3.9958    3.1286 H   0  0  0  0  0  0  0  0  0  0  0  0
    3.6302   -2.9502    1.7355 H   0  0  0  0  0  0  0  0  0  0  0  0
    5.0822   -1.8749    3.2978 H   0  0  0  0  0  0  0  0  0  0  0  0
    2.4103   -4.1625    5.3734 O   0  5  0  0  0  0  0  0  0  0  0  0
  1  2  1  0  0  0  0
  1 29  1  0  0  0  0
  1 30  1  0  0  0  0
  1 31  1  0  0  0  0
  2  3  1  0  0  0  0
  2  4  1  0  0  0  0
  2  5  1  0  0  0  0
  3 32  1  0  0  0  0
  3 33  1  0  0  0  0
  3 34  1  0  0  0  0
  4 35  1  0  0  0  0
  4 36  1  0  0  0  0
  4 37  1  0  0  0  0
  5 10  2  0  0  0  0
  5  6  1  0  0  0  0
  6  7  2  0  0  0  0
  6 38  1  0  0  0  0
  7  8  1  0  0  0  0
  7 17  1  0  0  0  0
  8  9  2  0  0  0  0
  8 15  1  0  0  0  0
  9 10  1  0  0  0  0
  9 11  1  0  0  0  0
 10 39  1  0  0  0  0
 11 12  1  0  0  0  0
 11 13  1  0  0  0  0
 11 14  1  0  0  0  0
 12 40  1  0  0  0  0
 12 41  1  0  0  0  0
 12 42  1  0  0  0  0
 13 43  1  0  0  0  0
 13 44  1  0  0  0  0
 13 45  1  0  0  0  0
 14 46  1  0  0  0  0
 14 47  1  0  0  0  0
 14 48  1  0  0  0  0
 15 16  1  0  0  0  0
 16 49  1  0  0  0  0
 16 50  1  0  0  0  0
 16 51  1  0  0  0  0
 17 21  1  0  0  0  0
 17 18  2  0  0  0  0
 18 19  1  0  0  0  0
 18 52  1  0  0  0  0
 19 20  1  0  0  0  0
 20 21  2  0  0  0  0
 20 22  1  0  0  0  0
 22 23  1  0  0  0  0
 22 53  1  0  0  0  0
 23 24  1  0  0  0  0
 23 25  1  0  0  0  0
 23 27  1  0  0  0  0
 25 26  1  0  0  0  0
 25 54  1  0  0  0  0
 25 55  1  0  0  0  0
 26 56  1  0  0  0  0
 27 28  2  0  0  0  0
 27 57  1  0  0  0  0
M  CHG  1  57  -1
M  END
$$$$
ZINC03856838
  -OEChem-08230709463D

 57 58  0     1  0  0  0  0  0999 V2000
   -6.8915   -0.9931    0.5754 C   0  0  0  0  0  0  0  0  0  0  0  0
   -6.5402    0.4457    0.1915 C   0  0  0  0  0  0  0  0  0  0  0  0
   -7.3642    1.4158    1.0406 C   0  0  0  0  0  0  0  0  0  0  0  0
   -6.8549    0.6698   -1.2889 C   0  0  0  0  0  0  0  0  0  0  0  0
   -5.0727    0.6866    0.4352 C   0  0  0  0  0  0  0  0  0  0  0  0
   -4.2821   -0.3299    0.9335 C   0  0  0  0  0  0  0  0  0  0  0  0
   -2.9257   -0.1084    1.1587 C   0  0  0  0  0  0  0  0  0  0  0  0
   -2.3722    1.1450    0.8778 C   0  0  0  0  0  0  0  0  0  0  0  0
   -3.1778    2.1572    0.3838 C   0  0  0  0  0  0  0  0  0  0  0  0
   -4.5223    1.9250    0.1585 C   0  0  0  0  0  0  0  0  0  0  0  0
   -2.5875    3.5114    0.0859 C   0  0  0  0  0  0  0  0  0  0  0  0
   -3.7000    4.4688   -0.3464 C   0  0  0  0  0  0  0  0  0  0  0  0
   -1.9042    4.0572    1.3413 C   0  0  0  0  0  0  0  0  0  0  0  0
   -1.5591    3.3831   -1.0396 C   0  0  0  0  0  0  0  0  0  0  0  0
   -1.0498    1.3703    1.0942 O   0  0  0  0  0  0  0  0  0  0  0  0
   -0.1412    0.9148    0.0898 C   0  0  0  0  0  0  0  0  0  0  0  0
   -2.0721   -1.1964    1.6942 C   0  0  0  0  0  0  0  0  0  0  0  0
   -2.6119   -2.4165    1.9867 C   0  0  0  0  0  0  0  0  0  0  0  0
   -1.1655   -3.2903    2.5703 S   0  0  0  0  0  0  0  0  0  0  0  0
    0.0012   -1.9505    2.3763 C   0  0  0  0  0  0  0  0  0  0  0  0
   -0.7729   -0.9926    1.9001 N   0  0  0  0  0  0  0  0  0  0  0  0
    1.3587   -1.9240    2.6521 N   0  0  0  0  0  0  0  0  0  0  0  0
    2.0219   -3.1178    3.1824 C   0  0  2  0  0  0  0  0  0  0  0  0
    1.5690   -4.0086    2.7470 H   0  0  0  0  0  0  0  0  0  0  0  0
    1.8627   -3.1564    4.7036 C   0  0  0  0  0  0  0  0  0  0  0  0
    2.5563   -2.0497    5.2833 O   0  0  0  0  0  0  0  0  0  0  0  0
    3.4868   -3.0763    2.8315 C   0  0  0  0  0  0  0  0  0  0  0  0
    3.9314   -2.1451    2.2029 O   0  0  0  0  0  0  0  0  0  0  0  0
   -6.6673   -1.1528    1.6301 H   0  0  0  0  0  0  0  0  0  0  0  0
   -7.9530   -1.1673    0.3992 H   0  0  0  0  0  0  0  0  0  0  0  0
   -6.3045   -1.6842   -0.0295 H   0  0  0  0  0  0  0  0  0  0  0  0
   -7.1139    2.4408    0.7671 H   0  0  0  0  0  0  0  0  0  0  0  0
   -8.4256    1.2415    0.8643 H   0  0  0  0  0  0  0  0  0  0  0  0
   -7.1400    1.2561    2.0953 H   0  0  0  0  0  0  0  0  0  0  0  0
   -6.2679   -0.0213   -1.8938 H   0  0  0  0  0  0  0  0  0  0  0  0
   -7.9163    0.4956   -1.4652 H   0  0  0  0  0  0  0  0  0  0  0  0
   -6.6046    1.6948   -1.5624 H   0  0  0  0  0  0  0  0  0  0  0  0
   -4.7151   -1.2957    1.1482 H   0  0  0  0  0  0  0  0  0  0  0  0
   -5.1464    2.7157   -0.2311 H   0  0  0  0  0  0  0  0  0  0  0  0
   -4.4326    4.5601    0.4555 H   0  0  0  0  0  0  0  0  0  0  0  0
   -3.2730    5.4482   -0.5618 H   0  0  0  0  0  0  0  0  0  0  0  0
   -4.1868    4.0799   -1.2407 H   0  0  0  0  0  0  0  0  0  0  0  0
   -1.1117    3.3751    1.6493 H   0  0  0  0  0  0  0  0  0  0  0  0
   -1.4773    5.0367    1.1259 H   0  0  0  0  0  0  0  0  0  0  0  0
   -2.6369    4.1486    2.1432 H   0  0  0  0  0  0  0  0  0  0  0  0
   -1.9914    2.8157   -1.8638 H   0  0  0  0  0  0  0  0  0  0  0  0
   -1.2783    4.3763   -1.3901 H   0  0  0  0  0  0  0  0  0  0  0  0
   -0.6750    2.8659   -0.6668 H   0  0  0  0  0  0  0  0  0  0  0  0
   -0.1193   -0.1750    0.0869 H   0  0  0  0  0  0  0  0  0  0  0  0
    0.8570    1.2976    0.3022 H   0  0  0  0  0  0  0  0  0  0  0  0
   -0.4681    1.2742   -0.8859 H   0  0  0  0  0  0  0  0  0  0  0  0
   -3.6315   -2.7594    1.8905 H   0  0  0  0  0  0  0  0  0  0  0  0
    1.8700   -1.1150    2.4941 H   0  0  0  0  0  0  0  0  0  0  0  0
    0.8049   -3.0968    4.9598 H   0  0  0  0  0  0  0  0  0  0  0  0
    2.2780   -4.0876    5.0888 H   0  0  0  0  0  0  0  0  0  0  0  0
    2.4981   -2.0106    6.2478 H   0  0  0  0  0  0  0  0  0  0  0  0
    4.2979   -4.0739    3.2172 O   0  5  0  0  0  0  0  0  0  0  0  0
  1  2  1  0  0  0  0
  1 29  1  0  0  0  0
  1 30  1  0  0  0  0
  1 31  1  0  0  0  0
  2  3  1  0  0  0  0
  2  4  1  0  0  0  0
  2  5  1  0  0  0  0
  3 32  1  0  0  0  0
  3 33  1  0  0  0  0
  3 34  1  0  0  0  0
  4 35  1  0  0  0  0
  4 36  1  0  0  0  0
  4 37  1  0  0  0  0
  5 10  2  0  0  0  0
  5  6  1  0  0  0  0
  6  7  2  0  0  0  0
  6 38  1  0  0  0  0
  7  8  1  0  0  0  0
  7 17  1  0  0  0  0
  8  9  2  0  0  0  0
  8 15  1  0  0  0  0
  9 10  1  0  0  0  0
  9 11  1  0  0  0  0
 10 39  1  0  0  0  0
 11 12  1  0  0  0  0
 11 13  1  0  0  0  0
 11 14  1  0  0  0  0
 12 40  1  0  0  0  0
 12 41  1  0  0  0  0
 12 42  1  0  0  0  0
 13 43  1  0  0  0  0
 13 44  1  0  0  0  0
 13 45  1  0  0  0  0
 14 46  1  0  0  0  0
 14 47  1  0  0  0  0
 14 48  1  0  0  0  0
 15 16  1  0  0  0  0
 16 49  1  0  0  0  0
 16 50  1  0  0  0  0
 16 51  1  0  0  0  0
 17 21  1  0  0  0  0
 17 18  2  0  0  0  0
 18 19  1  0  0  0  0
 18 52  1  0  0  0  0
 19 20  1  0  0  0  0
 20 21  2  0  0  0  0
 20 22  1  0  0  0  0
 22 23  1  0  0  0  0
 22 53  1  0  0  0  0
 23 24  1  0  0  0  0
 23 25  1  0  0  0  0
 23 27  1  0  0  0  0
 25 26  1  0  0  0  0
 25 54  1  0  0  0  0
 25 55  1  0  0  0  0
 26 56  1  0  0  0  0
 27 28  2  0  0  0  0
 27 57  1  0  0  0  0
M  CHG  1  57  -1
M  END
$$$$
ZINC03856839
  -OEChem-08230709463D

 59 60  0     1  0  0  0  0  0999 V2000
    5.3850    1.2600   -1.2255 C   0  0  0  0  0  0  0  0  0  0  0  0
    3.9084    0.9302   -1.4535 C   0  0  0  0  0  0  0  0  0  0  0  0
    3.1414    1.3816   -0.3354 O   0  0  0  0  0  0  0  0  0  0  0  0
    1.7896    1.2853   -0.4354 C   0  0  0  0  0  0  0  0  0  0  0  0
    1.1617    0.0443   -0.2881 C   0  0  0  0  0  0  0  0  0  0  0  0
   -0.2243   -0.0443   -0.3918 C   0  0  0  0  0  0  0  0  0  0  0  0
   -0.9706    1.0908   -0.6389 C   0  0  0  0  0  0  0  0  0  0  0  0
   -0.3466    2.3167   -0.7835 C   0  0  0  0  0  0  0  0  0  0  0  0
    1.0289    2.4157   -0.6825 C   0  0  0  0  0  0  0  0  0  0  0  0
    1.7009    3.7553   -0.8414 C   0  0  0  0  0  0  0  0  0  0  0  0
    0.6384    4.8390   -1.0349 C   0  0  0  0  0  0  0  0  0  0  0  0
    2.5232    4.0651    0.4111 C   0  0  0  0  0  0  0  0  0  0  0  0
    2.6232    3.7216   -2.0617 C   0  0  0  0  0  0  0  0  0  0  0  0
   -2.4703    0.9937   -0.7508 C   0  0  0  0  0  0  0  0  0  0  0  0
   -2.9105    1.4732   -2.1355 C   0  0  0  0  0  0  0  0  0  0  0  0
   -2.9035   -0.4603   -0.5532 C   0  0  0  0  0  0  0  0  0  0  0  0
   -3.1196    1.8697    0.3224 C   0  0  0  0  0  0  0  0  0  0  0  0
    1.9681   -1.1716   -0.0224 C   0  0  0  0  0  0  0  0  0  0  0  0
    1.3671   -2.3960    0.0502 C   0  0  0  0  0  0  0  0  0  0  0  0
    2.7795   -3.4424    0.3761 S   0  0  0  0  0  0  0  0  0  0  0  0
    4.0170   -2.1530    0.3913 C   0  0  0  0  0  0  0  0  0  0  0  0
    3.2844   -1.0805    0.1534 N   0  0  0  0  0  0  0  0  0  0  0  0
    5.3834   -2.2525    0.5973 N   0  0  0  0  0  0  0  0  0  0  0  0
    5.9931   -3.5610    0.8473 C   0  0  1  0  0  0  0  0  0  0  0  0
    5.3059   -4.1773    1.4269 H   0  0  0  0  0  0  0  0  0  0  0  0
    6.2925   -4.2474   -0.4869 C   0  0  0  0  0  0  0  0  0  0  0  0
    7.2757   -3.3787    1.6173 C   0  0  0  0  0  0  0  0  0  0  0  0
    7.6428   -2.2696    1.9256 O   0  0  0  0  0  0  0  0  0  0  0  0
    5.9700    0.9157   -2.0784 H   0  0  0  0  0  0  0  0  0  0  0  0
    5.5036    2.3379   -1.1149 H   0  0  0  0  0  0  0  0  0  0  0  0
    5.7332    0.7614   -0.3210 H   0  0  0  0  0  0  0  0  0  0  0  0
    3.7898   -0.1476   -1.5641 H   0  0  0  0  0  0  0  0  0  0  0  0
    3.5602    1.4288   -2.3580 H   0  0  0  0  0  0  0  0  0  0  0  0
   -0.7149   -0.9998   -0.2787 H   0  0  0  0  0  0  0  0  0  0  0  0
   -0.9361    3.1999   -0.9807 H   0  0  0  0  0  0  0  0  0  0  0  0
   -0.0187    4.8630   -0.1655 H   0  0  0  0  0  0  0  0  0  0  0  0
    1.1244    5.8079   -1.1498 H   0  0  0  0  0  0  0  0  0  0  0  0
    0.0525    4.6183   -1.9272 H   0  0  0  0  0  0  0  0  0  0  0  0
    3.2802    3.2930    0.5489 H   0  0  0  0  0  0  0  0  0  0  0  0
    3.0092    5.0339    0.2961 H   0  0  0  0  0  0  0  0  0  0  0  0
    1.8662    4.0891    1.2804 H   0  0  0  0  0  0  0  0  0  0  0  0
    2.0703    3.3510   -2.9248 H   0  0  0  0  0  0  0  0  0  0  0  0
    2.9886    4.7274   -2.2688 H   0  0  0  0  0  0  0  0  0  0  0  0
    3.4677    3.0624   -1.8607 H   0  0  0  0  0  0  0  0  0  0  0  0
   -2.4479    0.8492   -2.9001 H   0  0  0  0  0  0  0  0  0  0  0  0
   -3.9952    1.4030   -2.2165 H   0  0  0  0  0  0  0  0  0  0  0  0
   -2.6019    2.5091   -2.2763 H   0  0  0  0  0  0  0  0  0  0  0  0
   -2.5899   -0.8019    0.4333 H   0  0  0  0  0  0  0  0  0  0  0  0
   -3.9882   -0.5305   -0.6341 H   0  0  0  0  0  0  0  0  0  0  0  0
   -2.4409   -1.0844   -1.3178 H   0  0  0  0  0  0  0  0  0  0  0  0
   -2.8110    2.9056    0.1816 H   0  0  0  0  0  0  0  0  0  0  0  0
   -4.2043    1.7995    0.2415 H   0  0  0  0  0  0  0  0  0  0  0  0
   -2.8061    1.5281    1.3089 H   0  0  0  0  0  0  0  0  0  0  0  0
    0.3256   -2.6595   -0.0604 H   0  0  0  0  0  0  0  0  0  0  0  0
    5.9364   -1.4559    0.5760 H   0  0  0  0  0  0  0  0  0  0  0  0
    6.7461   -5.2209   -0.3009 H   0  0  0  0  0  0  0  0  0  0  0  0
    5.3648   -4.3793   -1.0438 H   0  0  0  0  0  0  0  0  0  0  0  0
    6.9797   -3.6311   -1.0665 H   0  0  0  0  0  0  0  0  0  0  0  0
    8.0102   -4.4484    1.9606 O   0  5  0  0  0  0  0  0  0  0  0  0
  1  2  1  0  0  0  0
  1 29  1  0  0  0  0
  1 30  1  0  0  0  0
  1 31  1  0  0  0  0
  2  3  1  0  0  0  0
  2 32  1  0  0  0  0
  2 33  1  0  0  0  0
  3  4  1  0  0  0  0
  4  9  2  0  0  0  0
  4  5  1  0  0  0  0
  5  6  2  0  0  0  0
  5 18  1  0  0  0  0
  6  7  1  0  0  0  0
  6 34  1  0  0  0  0
  7  8  2  0  0  0  0
  7 14  1  0  0  0  0
  8  9  1  0  0  0  0
  8 35  1  0  0  0  0
  9 10  1  0  0  0  0
 10 11  1  0  0  0  0
 10 12  1  0  0  0  0
 10 13  1  0  0  0  0
 11 36  1  0  0  0  0
 11 37  1  0  0  0  0
 11 38  1  0  0  0  0
 12 39  1  0  0  0  0
 12 40  1  0  0  0  0
 12 41  1  0  0  0  0
 13 42  1  0  0  0  0
 13 43  1  0  0  0  0
 13 44  1  0  0  0  0
 14 15  1  0  0  0  0
 14 16  1  0  0  0  0
 14 17  1  0  0  0  0
 15 45  1  0  0  0  0
 15 46  1  0  0  0  0
 15 47  1  0  0  0  0
 16 48  1  0  0  0  0
 16 49  1  0  0  0  0
 16 50  1  0  0  0  0
 17 51  1  0  0  0  0
 17 52  1  0  0  0  0
 17 53  1  0  0  0  0
 18 22  1  0  0  0  0
 18 19  2  0  0  0  0
 19 20  1  0  0  0  0
 19 54  1  0  0  0  0
 20 21  1  0  0  0  0
 21 22  2  0  0  0  0
 21 23  1  0  0  0  0
 23 24  1  0  0  0  0
 23 55  1  0  0  0  0
 24 25  1  0  0  0  0
 24 26  1  0  0  0  0
 24 27  1  0  0  0  0
 26 56  1  0  0  0  0
 26 57  1  0  0  0  0
 26 58  1  0  0  0  0
 27 28  2  0  0  0  0
 27 59  1  0  0  0  0
M  CHG  1  59  -1
M  END
$$$$
ZINC03856840
  -OEChem-08230709463D

 59 60  0     1  0  0  0  0  0999 V2000
    5.3812    1.2254   -1.2327 C   0  0  0  0  0  0  0  0  0  0  0  0
    3.9016    0.9040   -1.4522 C   0  0  0  0  0  0  0  0  0  0  0  0
    3.1424    1.3669   -0.3335 O   0  0  0  0  0  0  0  0  0  0  0  0
    1.7896    1.2786   -0.4270 C   0  0  0  0  0  0  0  0  0  0  0  0
    1.1546    0.0424   -0.2708 C   0  0  0  0  0  0  0  0  0  0  0  0
   -0.2325   -0.0380   -0.3678 C   0  0  0  0  0  0  0  0  0  0  0  0
   -0.9727    1.1005   -0.6172 C   0  0  0  0  0  0  0  0  0  0  0  0
   -0.3416    2.3217   -0.7712 C   0  0  0  0  0  0  0  0  0  0  0  0
    1.0350    2.4125   -0.6768 C   0  0  0  0  0  0  0  0  0  0  0  0
    1.7147    3.7469   -0.8459 C   0  0  0  0  0  0  0  0  0  0  0  0
    0.6583    4.8361   -1.0423 C   0  0  0  0  0  0  0  0  0  0  0  0
    2.5431    4.0590    0.4020 C   0  0  0  0  0  0  0  0  0  0  0  0
    2.6327    3.7003   -2.0690 C   0  0  0  0  0  0  0  0  0  0  0  0
   -2.4735    1.0125   -0.7215 C   0  0  0  0  0  0  0  0  0  0  0  0
   -2.9172    1.4877   -2.1065 C   0  0  0  0  0  0  0  0  0  0  0  0
   -2.9149   -0.4377   -0.5142 C   0  0  0  0  0  0  0  0  0  0  0  0
   -3.1120    1.8982    0.3503 C   0  0  0  0  0  0  0  0  0  0  0  0
    1.9544   -1.1773   -0.0026 C   0  0  0  0  0  0  0  0  0  0  0  0
    1.3464   -2.3977    0.0766 C   0  0  0  0  0  0  0  0  0  0  0  0
    2.7535   -3.4513    0.4026 S   0  0  0  0  0  0  0  0  0  0  0  0
    3.9987   -2.1693    0.4090 C   0  0  0  0  0  0  0  0  0  0  0  0
    3.2718   -1.0934    0.1690 N   0  0  0  0  0  0  0  0  0  0  0  0
    5.3650   -2.2760    0.6125 N   0  0  0  0  0  0  0  0  0  0  0  0
    5.9676   -3.5871    0.8657 C   0  0  2  0  0  0  0  0  0  0  0  0
    5.4388   -4.3472    0.2906 H   0  0  0  0  0  0  0  0  0  0  0  0
    5.8682   -3.9147    2.3568 C   0  0  0  0  0  0  0  0  0  0  0  0
    7.4166   -3.5621    0.4524 C   0  0  0  0  0  0  0  0  0  0  0  0
    7.8967   -2.5528   -0.0065 O   0  0  0  0  0  0  0  0  0  0  0  0
    5.5074    2.3031   -1.1289 H   0  0  0  0  0  0  0  0  0  0  0  0
    5.7301    0.7298   -0.3267 H   0  0  0  0  0  0  0  0  0  0  0  0
    5.9603    0.8723   -2.0860 H   0  0  0  0  0  0  0  0  0  0  0  0
    3.7754   -0.1737   -1.5561 H   0  0  0  0  0  0  0  0  0  0  0  0
    3.5526    1.3996   -2.3582 H   0  0  0  0  0  0  0  0  0  0  0  0
   -0.7285   -0.9898   -0.2477 H   0  0  0  0  0  0  0  0  0  0  0  0
   -0.9263    3.2076   -0.9705 H   0  0  0  0  0  0  0  0  0  0  0  0
    0.0043    4.8693   -0.1709 H   0  0  0  0  0  0  0  0  0  0  0  0
    1.1499    5.8012   -1.1646 H   0  0  0  0  0  0  0  0  0  0  0  0
    0.0681    4.6137   -1.9313 H   0  0  0  0  0  0  0  0  0  0  0  0
    3.2957    3.2831    0.5419 H   0  0  0  0  0  0  0  0  0  0  0  0
    3.0347    5.0242    0.2797 H   0  0  0  0  0  0  0  0  0  0  0  0
    1.8891    4.0922    1.2734 H   0  0  0  0  0  0  0  0  0  0  0  0
    2.0745    3.3287   -2.9283 H   0  0  0  0  0  0  0  0  0  0  0  0
    3.0042    4.7024   -2.2828 H   0  0  0  0  0  0  0  0  0  0  0  0
    3.4734    3.0365   -1.8672 H   0  0  0  0  0  0  0  0  0  0  0  0
   -2.4623    0.8567   -2.8701 H   0  0  0  0  0  0  0  0  0  0  0  0
   -4.0028    1.4240   -2.1819 H   0  0  0  0  0  0  0  0  0  0  0  0
   -2.6027    2.5208   -2.2542 H   0  0  0  0  0  0  0  0  0  0  0  0
   -2.5988   -0.7762    0.4725 H   0  0  0  0  0  0  0  0  0  0  0  0
   -4.0005   -0.5014   -0.5896 H   0  0  0  0  0  0  0  0  0  0  0  0
   -2.4600   -1.0686   -1.2778 H   0  0  0  0  0  0  0  0  0  0  0  0
   -2.7975    2.9313    0.2026 H   0  0  0  0  0  0  0  0  0  0  0  0
   -4.1976    1.8345    0.2749 H   0  0  0  0  0  0  0  0  0  0  0  0
   -2.7959    1.5597    1.3370 H   0  0  0  0  0  0  0  0  0  0  0  0
    0.3029   -2.6554   -0.0295 H   0  0  0  0  0  0  0  0  0  0  0  0
    5.9225   -1.4827    0.5873 H   0  0  0  0  0  0  0  0  0  0  0  0
    6.3166   -4.8902    2.5452 H   0  0  0  0  0  0  0  0  0  0  0  0
    6.3970   -3.1546    2.9319 H   0  0  0  0  0  0  0  0  0  0  0  0
    4.8201   -3.9328    2.6558 H   0  0  0  0  0  0  0  0  0  0  0  0
    8.1740   -4.6613    0.5941 O   0  5  0  0  0  0  0  0  0  0  0  0
  1  2  1  0  0  0  0
  1 29  1  0  0  0  0
  1 30  1  0  0  0  0
  1 31  1  0  0  0  0
  2  3  1  0  0  0  0
  2 32  1  0  0  0  0
  2 33  1  0  0  0  0
  3  4  1  0  0  0  0
  4  9  2  0  0  0  0
  4  5  1  0  0  0  0
  5  6  2  0  0  0  0
  5 18  1  0  0  0  0
  6  7  1  0  0  0  0
  6 34  1  0  0  0  0
  7  8  2  0  0  0  0
  7 14  1  0  0  0  0
  8  9  1  0  0  0  0
  8 35  1  0  0  0  0
  9 10  1  0  0  0  0
 10 11  1  0  0  0  0
 10 12  1  0  0  0  0
 10 13  1  0  0  0  0
 11 36  1  0  0  0  0
 11 37  1  0  0  0  0
 11 38  1  0  0  0  0
 12 39  1  0  0  0  0
 12 40  1  0  0  0  0
 12 41  1  0  0  0  0
 13 42  1  0  0  0  0
 13 43  1  0  0  0  0
 13 44  1  0  0  0  0
 14 15  1  0  0  0  0
 14 16  1  0  0  0  0
 14 17  1  0  0  0  0
 15 45  1  0  0  0  0
 15 46  1  0  0  0  0
 15 47  1  0  0  0  0
 16 48  1  0  0  0  0
 16 49  1  0  0  0  0
 16 50  1  0  0  0  0
 17 51  1  0  0  0  0
 17 52  1  0  0  0  0
 17 53  1  0  0  0  0
 18 22  1  0  0  0  0
 18 19  2  0  0  0  0
 19 20  1  0  0  0  0
 19 54  1  0  0  0  0
 20 21  1  0  0  0  0
 21 22  2  0  0  0  0
 21 23  1  0  0  0  0
 23 24  1  0  0  0  0
 23 55  1  0  0  0  0
 24 25  1  0  0  0  0
 24 26  1  0  0  0  0
 24 27  1  0  0  0  0
 26 56  1  0  0  0  0
 26 57  1  0  0  0  0
 26 58  1  0  0  0  0
 27 28  2  0  0  0  0
 27 59  1  0  0  0  0
M  CHG  1  59  -1
M  END
$$$$
ZINC03856841
  -OEChem-08230709463D

 56 57  0     0  0  0  0  0  0999 V2000
    5.4910    2.4016    1.5396 C   0  0  0  0  0  0  0  0  0  0  0  0
    4.2784    1.4832    1.3756 C   0  0  0  0  0  0  0  0  0  0  0  0
    3.3818    2.0450    0.4152 O   0  0  0  0  0  0  0  0  0  0  0  0
    2.1876    1.4191    0.2460 C   0  0  0  0  0  0  0  0  0  0  0  0
    2.1214    0.2117   -0.4567 C   0  0  0  0  0  0  0  0  0  0  0  0
    0.8930   -0.4227   -0.6245 C   0  0  0  0  0  0  0  0  0  0  0  0
   -0.2516    0.1420   -0.0976 C   0  0  0  0  0  0  0  0  0  0  0  0
   -0.1828    1.3362    0.5969 C   0  0  0  0  0  0  0  0  0  0  0  0
    1.0318    1.9743    0.7692 C   0  0  0  0  0  0  0  0  0  0  0  0
    1.0979    3.2751    1.5272 C   0  0  0  0  0  0  0  0  0  0  0  0
   -0.3190    3.7342    1.8769 C   0  0  0  0  0  0  0  0  0  0  0  0
    1.9014    3.0754    2.8138 C   0  0  0  0  0  0  0  0  0  0  0  0
    1.7786    4.3364    0.6604 C   0  0  0  0  0  0  0  0  0  0  0  0
   -1.5802   -0.5455   -0.2793 C   0  0  0  0  0  0  0  0  0  0  0  0
   -2.5340    0.3802   -1.0373 C   0  0  0  0  0  0  0  0  0  0  0  0
   -1.3817   -1.8364   -1.0762 C   0  0  0  0  0  0  0  0  0  0  0  0
   -2.1740   -0.8782    1.0909 C   0  0  0  0  0  0  0  0  0  0  0  0
    3.3538   -0.3901   -1.0210 C   0  0  0  0  0  0  0  0  0  0  0  0
    3.3689   -1.7014   -1.4029 C   0  0  0  0  0  0  0  0  0  0  0  0
    5.0523   -1.8605   -1.9838 S   0  0  0  0  0  0  0  0  0  0  0  0
    5.5621   -0.1780   -1.6620 C   0  0  0  0  0  0  0  0  0  0  0  0
    4.4551    0.3434   -1.1657 N   0  0  0  0  0  0  0  0  0  0  0  0
    6.7917    0.4218   -1.8805 N   0  0  0  0  0  0  0  0  0  0  0  0
    7.8939   -0.3546   -2.4536 C   0  0  0  0  0  0  0  0  0  0  0  0
    9.1108    0.5242   -2.5879 C   0  0  0  0  0  0  0  0  0  0  0  0
    9.0623    1.6804   -2.2405 O   0  0  0  0  0  0  0  0  0  0  0  0
    6.0017    2.5037    0.5821 H   0  0  0  0  0  0  0  0  0  0  0  0
    5.1604    3.3824    1.8815 H   0  0  0  0  0  0  0  0  0  0  0  0
    6.1750    1.9731    2.2722 H   0  0  0  0  0  0  0  0  0  0  0  0
    3.7678    1.3811    2.3332 H   0  0  0  0  0  0  0  0  0  0  0  0
    4.6090    0.5024    1.0338 H   0  0  0  0  0  0  0  0  0  0  0  0
    0.8357   -1.3554   -1.1659 H   0  0  0  0  0  0  0  0  0  0  0  0
   -1.0826    1.7746    1.0026 H   0  0  0  0  0  0  0  0  0  0  0  0
   -0.8039    2.9781    2.4944 H   0  0  0  0  0  0  0  0  0  0  0  0
   -0.2712    4.6751    2.4251 H   0  0  0  0  0  0  0  0  0  0  0  0
   -0.8915    3.8765    0.9602 H   0  0  0  0  0  0  0  0  0  0  0  0
    2.9109    2.7484    2.5647 H   0  0  0  0  0  0  0  0  0  0  0  0
    1.9492    4.0163    3.3621 H   0  0  0  0  0  0  0  0  0  0  0  0
    1.4165    2.3193    3.4313 H   0  0  0  0  0  0  0  0  0  0  0  0
    1.1697    4.5292   -0.2229 H   0  0  0  0  0  0  0  0  0  0  0  0
    1.8894    5.2570    1.2333 H   0  0  0  0  0  0  0  0  0  0  0  0
    2.7615    3.9790    0.3533 H   0  0  0  0  0  0  0  0  0  0  0  0
   -2.1110    0.6172   -2.0135 H   0  0  0  0  0  0  0  0  0  0  0  0
   -3.4950   -0.1171   -1.1687 H   0  0  0  0  0  0  0  0  0  0  0  0
   -2.6754    1.2998   -0.4696 H   0  0  0  0  0  0  0  0  0  0  0  0
   -0.7023   -2.4959   -0.5363 H   0  0  0  0  0  0  0  0  0  0  0  0
   -2.3427   -2.3337   -1.2077 H   0  0  0  0  0  0  0  0  0  0  0  0
   -0.9587   -1.5994   -2.0524 H   0  0  0  0  0  0  0  0  0  0  0  0
   -2.3154    0.0415    1.6586 H   0  0  0  0  0  0  0  0  0  0  0  0
   -3.1350   -1.3755    0.9595 H   0  0  0  0  0  0  0  0  0  0  0  0
   -1.4945   -1.5377    1.6309 H   0  0  0  0  0  0  0  0  0  0  0  0
    2.5809   -2.4390   -1.3648 H   0  0  0  0  0  0  0  0  0  0  0  0
    6.9228    1.3558   -1.6540 H   0  0  0  0  0  0  0  0  0  0  0  0
    8.1238   -1.1962   -1.8001 H   0  0  0  0  0  0  0  0  0  0  0  0
    7.6040   -0.7264   -3.4364 H   0  0  0  0  0  0  0  0  0  0  0  0
   10.2485    0.0225   -3.0934 O   0  5  0  0  0  0  0  0  0  0  0  0
  1  2  1  0  0  0  0
  1 27  1  0  0  0  0
  1 28  1  0  0  0  0
  1 29  1  0  0  0  0
  2  3  1  0  0  0  0
  2 30  1  0  0  0  0
  2 31  1  0  0  0  0
  3  4  1  0  0  0  0
  4  9  2  0  0  0  0
  4  5  1  0  0  0  0
  5  6  2  0  0  0  0
  5 18  1  0  0  0  0
  6  7  1  0  0  0  0
  6 32  1  0  0  0  0
  7  8  2  0  0  0  0
  7 14  1  0  0  0  0
  8  9  1  0  0  0  0
  8 33  1  0  0  0  0
  9 10  1  0  0  0  0
 10 11  1  0  0  0  0
 10 12  1  0  0  0  0
 10 13  1  0  0  0  0
 11 34  1  0  0  0  0
 11 35  1  0  0  0  0
 11 36  1  0  0  0  0
 12 37  1  0  0  0  0
 12 38  1  0  0  0  0
 12 39  1  0  0  0  0
 13 40  1  0  0  0  0
 13 41  1  0  0  0  0
 13 42  1  0  0  0  0
 14 15  1  0  0  0  0
 14 16  1  0  0  0  0
 14 17  1  0  0  0  0
 15 43  1  0  0  0  0
 15 44  1  0  0  0  0
 15 45  1  0  0  0  0
 16 46  1  0  0  0  0
 16 47  1  0  0  0  0
 16 48  1  0  0  0  0
 17 49  1  0  0  0  0
 17 50  1  0  0  0  0
 17 51  1  0  0  0  0
 18 22  1  0  0  0  0
 18 19  2  0  0  0  0
 19 20  1  0  0  0  0
 19 52  1  0  0  0  0
 20 21  1  0  0  0  0
 21 22  2  0  0  0  0
 21 23  1  0  0  0  0
 23 24  1  0  0  0  0
 23 53  1  0  0  0  0
 24 25  1  0  0  0  0
 24 54  1  0  0  0  0
 24 55  1  0  0  0  0
 25 26  2  0  0  0  0
 25 56  1  0  0  0  0
M  CHG  1  56  -1
M  END
$$$$
ZINC03856842
  -OEChem-08230709463D

 54 55  0     1  0  0  0  0  0999 V2000
    3.4037   -1.2225    7.2369 C   0  0  0  0  0  0  0  0  0  0  0  0
    2.7911   -0.8151    5.8953 C   0  0  0  0  0  0  0  0  0  0  0  0
    1.5481    0.0422    6.1415 C   0  0  0  0  0  0  0  0  0  0  0  0
    1.9406    1.2966    6.9248 C   0  0  0  0  0  0  0  0  0  0  0  0
    0.5250   -0.7620    6.9461 C   0  0  0  0  0  0  0  0  0  0  0  0
    0.9447    0.4434    4.8201 C   0  0  0  0  0  0  0  0  0  0  0  0
    1.5330    0.0272    3.6389 C   0  0  0  0  0  0  0  0  0  0  0  0
    0.9841    0.3862    2.4220 C   0  0  0  0  0  0  0  0  0  0  0  0
   -0.1539    1.1748    2.3795 C   0  0  0  0  0  0  0  0  0  0  0  0
   -0.7507    1.5970    3.5713 C   0  0  0  0  0  0  0  0  0  0  0  0
   -0.1925    1.2252    4.7924 C   0  0  0  0  0  0  0  0  0  0  0  0
   -1.9728    2.4364    3.5358 C   0  0  0  0  0  0  0  0  0  0  0  0
   -2.6253    2.7546    4.6927 C   0  0  0  0  0  0  0  0  0  0  0  0
   -3.9691    3.7472    4.0560 S   0  0  0  0  0  0  0  0  0  0  0  0
   -3.5351    3.6316    2.3261 C   0  0  0  0  0  0  0  0  0  0  0  0
   -2.4483    2.8832    2.3755 N   0  0  0  0  0  0  0  0  0  0  0  0
   -4.1709    4.1813    1.2247 N   0  0  0  0  0  0  0  0  0  0  0  0
   -5.3797    4.9893    1.4044 C   0  0  1  0  0  0  0  0  0  0  0  0
   -5.3029    5.5568    2.3318 H   0  0  0  0  0  0  0  0  0  0  0  0
   -5.5276    5.9546    0.2266 C   0  0  1  0  0  0  0  0  0  0  0  0
   -6.3760    6.6158    0.4031 H   0  0  0  0  0  0  0  0  0  0  0  0
   -4.2520    6.7879    0.0868 C   0  0  0  0  0  0  0  0  0  0  0  0
   -5.7448    5.2111   -0.9743 O   0  0  0  0  0  0  0  0  0  0  0  0
   -6.5836    4.0850    1.4670 C   0  0  0  0  0  0  0  0  0  0  0  0
   -6.4460    2.8885    1.3714 O   0  0  0  0  0  0  0  0  0  0  0  0
   -0.6916    1.5321    1.1838 O   0  0  0  0  0  0  0  0  0  0  0  0
   -0.0277    1.0640    0.0081 C   0  0  0  0  0  0  0  0  0  0  0  0
   -0.7728    1.5634   -1.2313 C   0  0  0  0  0  0  0  0  0  0  0  0
    3.6833   -0.3288    7.7948 H   0  0  0  0  0  0  0  0  0  0  0  0
    2.6748   -1.7954    7.8101 H   0  0  0  0  0  0  0  0  0  0  0  0
    4.2892   -1.8333    7.0614 H   0  0  0  0  0  0  0  0  0  0  0  0
    2.5114   -1.7087    5.3373 H   0  0  0  0  0  0  0  0  0  0  0  0
    3.5200   -0.2422    5.3221 H   0  0  0  0  0  0  0  0  0  0  0  0
    1.0551    1.9074    7.1002 H   0  0  0  0  0  0  0  0  0  0  0  0
    2.3770    1.0064    7.8805 H   0  0  0  0  0  0  0  0  0  0  0  0
    2.6695    1.8696    6.3516 H   0  0  0  0  0  0  0  0  0  0  0  0
    0.2453   -1.6556    6.3881 H   0  0  0  0  0  0  0  0  0  0  0  0
    0.9614   -1.0522    7.9019 H   0  0  0  0  0  0  0  0  0  0  0  0
   -0.3606   -0.1512    7.1215 H   0  0  0  0  0  0  0  0  0  0  0  0
    2.4227   -0.5843    3.6679 H   0  0  0  0  0  0  0  0  0  0  0  0
    1.4454    0.0548    1.5034 H   0  0  0  0  0  0  0  0  0  0  0  0
   -0.6489    1.5486    5.7163 H   0  0  0  0  0  0  0  0  0  0  0  0
   -2.3929    2.4825    5.7117 H   0  0  0  0  0  0  0  0  0  0  0  0
   -3.8157    4.0313    0.3347 H   0  0  0  0  0  0  0  0  0  0  0  0
   -3.4036    6.1267   -0.0897 H   0  0  0  0  0  0  0  0  0  0  0  0
   -4.3574    7.4756   -0.7523 H   0  0  0  0  0  0  0  0  0  0  0  0
   -4.0863    7.3550    1.0028 H   0  0  0  0  0  0  0  0  0  0  0  0
   -5.0278    4.6006   -1.1940 H   0  0  0  0  0  0  0  0  0  0  0  0
   -0.0131   -0.0259    0.0087 H   0  0  0  0  0  0  0  0  0  0  0  0
    0.9949    1.4410   -0.0062 H   0  0  0  0  0  0  0  0  0  0  0  0
   -0.2664    1.2063   -2.1281 H   0  0  0  0  0  0  0  0  0  0  0  0
   -1.7954    1.1864   -1.2170 H   0  0  0  0  0  0  0  0  0  0  0  0
   -0.7874    2.6533   -1.2319 H   0  0  0  0  0  0  0  0  0  0  0  0
   -7.8087    4.6089    1.6290 O   0  5  0  0  0  0  0  0  0  0  0  0
  1  2  1  0  0  0  0
  1 29  1  0  0  0  0
  1 30  1  0  0  0  0
  1 31  1  0  0  0  0
  2  3  1  0  0  0  0
  2 32  1  0  0  0  0
  2 33  1  0  0  0  0
  3  4  1  0  0  0  0
  3  5  1  0  0  0  0
  3  6  1  0  0  0  0
  4 34  1  0  0  0  0
  4 35  1  0  0  0  0
  4 36  1  0  0  0  0
  5 37  1  0  0  0  0
  5 38  1  0  0  0  0
  5 39  1  0  0  0  0
  6 11  2  0  0  0  0
  6  7  1  0  0  0  0
  7  8  2  0  0  0  0
  7 40  1  0  0  0  0
  8  9  1  0  0  0  0
  8 41  1  0  0  0  0
  9 10  2  0  0  0  0
  9 26  1  0  0  0  0
 10 11  1  0  0  0  0
 10 12  1  0  0  0  0
 11 42  1  0  0  0  0
 12 16  1  0  0  0  0
 12 13  2  0  0  0  0
 13 14  1  0  0  0  0
 13 43  1  0  0  0  0
 14 15  1  0  0  0  0
 15 16  2  0  0  0  0
 15 17  1  0  0  0  0
 17 18  1  0  0  0  0
 17 44  1  0  0  0  0
 18 19  1  0  0  0  0
 18 20  1  0  0  0  0
 18 24  1  0  0  0  0
 20 21  1  0  0  0  0
 20 22  1  0  0  0  0
 20 23  1  0  0  0  0
 22 45  1  0  0  0  0
 22 46  1  0  0  0  0
 22 47  1  0  0  0  0
 23 48  1  0  0  0  0
 24 25  2  0  0  0  0
 24 54  1  0  0  0  0
 26 27  1  0  0  0  0
 27 28  1  0  0  0  0
 27 49  1  0  0  0  0
 27 50  1  0  0  0  0
 28 51  1  0  0  0  0
 28 52  1  0  0  0  0
 28 53  1  0  0  0  0
M  CHG  1  54  -1
M  END
$$$$
ZINC03856843
  -OEChem-08230709463D

 54 55  0     1  0  0  0  0  0999 V2000
   -9.7839   -5.0958    0.1693 C   0  0  0  0  0  0  0  0  0  0  0  0
   -8.9187   -4.6369    1.3448 C   0  0  0  0  0  0  0  0  0  0  0  0
   -7.8797   -3.6286    0.8502 C   0  0  0  0  0  0  0  0  0  0  0  0
   -8.5921   -2.4204    0.2391 C   0  0  0  0  0  0  0  0  0  0  0  0
   -6.9934   -4.2874   -0.2087 C   0  0  0  0  0  0  0  0  0  0  0  0
   -7.0275   -3.1766    2.0080 C   0  0  0  0  0  0  0  0  0  0  0  0
   -7.2619   -3.6812    3.2749 C   0  0  0  0  0  0  0  0  0  0  0  0
   -6.4852   -3.2730    4.3431 C   0  0  0  0  0  0  0  0  0  0  0  0
   -5.4664   -2.3547    4.1495 C   0  0  0  0  0  0  0  0  0  0  0  0
   -5.2269   -1.8429    2.8706 C   0  0  0  0  0  0  0  0  0  0  0  0
   -6.0192   -2.2567    1.8020 C   0  0  0  0  0  0  0  0  0  0  0  0
   -4.1383   -0.8595    2.6537 C   0  0  0  0  0  0  0  0  0  0  0  0
   -3.8284   -0.4403    1.3912 C   0  0  0  0  0  0  0  0  0  0  0  0
   -2.4920    0.6963    1.7354 S   0  0  0  0  0  0  0  0  0  0  0  0
   -2.4808    0.5002    3.5118 C   0  0  0  0  0  0  0  0  0  0  0  0
   -3.4496   -0.3797    3.6869 N   0  0  0  0  0  0  0  0  0  0  0  0
   -1.6669    1.1064    4.4550 N   0  0  0  0  0  0  0  0  0  0  0  0
   -0.6389    2.0602    4.0309 C   0  0  2  0  0  0  0  0  0  0  0  0
   -0.2261    1.7469    3.0719 H   0  0  0  0  0  0  0  0  0  0  0  0
    0.4773    2.1054    5.0763 C   0  0  1  0  0  0  0  0  0  0  0  0
    0.8605    1.0986    5.2424 H   0  0  0  0  0  0  0  0  0  0  0  0
    1.6087    3.0056    4.5759 C   0  0  0  0  0  0  0  0  0  0  0  0
   -0.0393    2.6267    6.3025 O   0  0  0  0  0  0  0  0  0  0  0  0
   -1.2516    3.4298    3.8907 C   0  0  0  0  0  0  0  0  0  0  0  0
   -2.4264    3.5926    4.1213 O   0  0  0  0  0  0  0  0  0  0  0  0
   -4.7020   -1.9531    5.1987 O   0  0  0  0  0  0  0  0  0  0  0  0
   -5.0046   -2.5184    6.4758 C   0  0  0  0  0  0  0  0  0  0  0  0
   -4.0463   -1.9509    7.5248 C   0  0  0  0  0  0  0  0  0  0  0  0
  -10.2914   -4.2350   -0.2661 H   0  0  0  0  0  0  0  0  0  0  0  0
   -9.1525   -5.5652   -0.5851 H   0  0  0  0  0  0  0  0  0  0  0  0
  -10.5241   -5.8142    0.5216 H   0  0  0  0  0  0  0  0  0  0  0  0
   -8.4111   -5.4977    1.7801 H   0  0  0  0  0  0  0  0  0  0  0  0
   -9.5501   -4.1676    2.0992 H   0  0  0  0  0  0  0  0  0  0  0  0
   -7.8519   -1.7020   -0.1132 H   0  0  0  0  0  0  0  0  0  0  0  0
   -9.2085   -2.7473   -0.5983 H   0  0  0  0  0  0  0  0  0  0  0  0
   -9.2235   -1.9510    0.9935 H   0  0  0  0  0  0  0  0  0  0  0  0
   -6.4858   -5.1482    0.2266 H   0  0  0  0  0  0  0  0  0  0  0  0
   -7.6097   -4.6143   -1.0462 H   0  0  0  0  0  0  0  0  0  0  0  0
   -6.2531   -3.5691   -0.5611 H   0  0  0  0  0  0  0  0  0  0  0  0
   -8.0552   -4.3976    3.4298 H   0  0  0  0  0  0  0  0  0  0  0  0
   -6.6732   -3.6701    5.3297 H   0  0  0  0  0  0  0  0  0  0  0  0
   -5.8421   -1.8612    0.8127 H   0  0  0  0  0  0  0  0  0  0  0  0
   -4.2692   -0.7190    0.4454 H   0  0  0  0  0  0  0  0  0  0  0  0
   -1.7777    0.8994    5.3961 H   0  0  0  0  0  0  0  0  0  0  0  0
    1.2254    4.0124    4.4098 H   0  0  0  0  0  0  0  0  0  0  0  0
    2.4039    3.0378    5.3207 H   0  0  0  0  0  0  0  0  0  0  0  0
    2.0027    2.6079    3.6407 H   0  0  0  0  0  0  0  0  0  0  0  0
   -0.3980    3.5217    6.2292 H   0  0  0  0  0  0  0  0  0  0  0  0
   -6.0304   -2.2708    6.7489 H   0  0  0  0  0  0  0  0  0  0  0  0
   -4.8924   -3.6016    6.4294 H   0  0  0  0  0  0  0  0  0  0  0  0
   -3.0205   -2.1986    7.2517 H   0  0  0  0  0  0  0  0  0  0  0  0
   -4.1585   -0.8677    7.5712 H   0  0  0  0  0  0  0  0  0  0  0  0
   -4.2771   -2.3821    8.4989 H   0  0  0  0  0  0  0  0  0  0  0  0
   -0.4910    4.4700    3.5149 O   0  5  0  0  0  0  0  0  0  0  0  0
  1  2  1  0  0  0  0
  1 29  1  0  0  0  0
  1 30  1  0  0  0  0
  1 31  1  0  0  0  0
  2  3  1  0  0  0  0
  2 32  1  0  0  0  0
  2 33  1  0  0  0  0
  3  4  1  0  0  0  0
  3  5  1  0  0  0  0
  3  6  1  0  0  0  0
  4 34  1  0  0  0  0
  4 35  1  0  0  0  0
  4 36  1  0  0  0  0
  5 37  1  0  0  0  0
  5 38  1  0  0  0  0
  5 39  1  0  0  0  0
  6 11  2  0  0  0  0
  6  7  1  0  0  0  0
  7  8  2  0  0  0  0
  7 40  1  0  0  0  0
  8  9  1  0  0  0  0
  8 41  1  0  0  0  0
  9 10  2  0  0  0  0
  9 26  1  0  0  0  0
 10 11  1  0  0  0  0
 10 12  1  0  0  0  0
 11 42  1  0  0  0  0
 12 16  1  0  0  0  0
 12 13  2  0  0  0  0
 13 14  1  0  0  0  0
 13 43  1  0  0  0  0
 14 15  1  0  0  0  0
 15 16  2  0  0  0  0
 15 17  1  0  0  0  0
 17 18  1  0  0  0  0
 17 44  1  0  0  0  0
 18 19  1  0  0  0  0
 18 20  1  0  0  0  0
 18 24  1  0  0  0  0
 20 21  1  0  0  0  0
 20 22  1  0  0  0  0
 20 23  1  0  0  0  0
 22 45  1  0  0  0  0
 22 46  1  0  0  0  0
 22 47  1  0  0  0  0
 23 48  1  0  0  0  0
 24 25  2  0  0  0  0
 24 54  1  0  0  0  0
 26 27  1  0  0  0  0
 27 28  1  0  0  0  0
 27 49  1  0  0  0  0
 27 50  1  0  0  0  0
 28 51  1  0  0  0  0
 28 52  1  0  0  0  0
 28 53  1  0  0  0  0
M  CHG  1  54  -1
M  END
$$$$
ZINC03856844
  -OEChem-08230709463D

 54 55  0     1  0  0  0  0  0999 V2000
    3.4037   -1.2224    7.2368 C   0  0  0  0  0  0  0  0  0  0  0  0
    2.7911   -0.8151    5.8953 C   0  0  0  0  0  0  0  0  0  0  0  0
    1.5481    0.0423    6.1415 C   0  0  0  0  0  0  0  0  0  0  0  0
    1.9407    1.2966    6.9247 C   0  0  0  0  0  0  0  0  0  0  0  0
    0.5250   -0.7620    6.9461 C   0  0  0  0  0  0  0  0  0  0  0  0
    0.9448    0.4435    4.8201 C   0  0  0  0  0  0  0  0  0  0  0  0
    1.5330    0.0272    3.6389 C   0  0  0  0  0  0  0  0  0  0  0  0
    0.9841    0.3862    2.4220 C   0  0  0  0  0  0  0  0  0  0  0  0
   -0.1539    1.1748    2.3795 C   0  0  0  0  0  0  0  0  0  0  0  0
   -0.7507    1.5970    3.5713 C   0  0  0  0  0  0  0  0  0  0  0  0
   -0.1925    1.2252    4.7924 C   0  0  0  0  0  0  0  0  0  0  0  0
   -1.9722    2.4372    3.5358 C   0  0  0  0  0  0  0  0  0  0  0  0
   -2.6249    2.7554    4.6927 C   0  0  0  0  0  0  0  0  0  0  0  0
   -3.9684    3.7483    4.0559 S   0  0  0  0  0  0  0  0  0  0  0  0
   -3.5337    3.6334    2.3261 C   0  0  0  0  0  0  0  0  0  0  0  0
   -2.4472    2.8847    2.3756 N   0  0  0  0  0  0  0  0  0  0  0  0
   -4.1685    4.1845    1.2248 N   0  0  0  0  0  0  0  0  0  0  0  0
   -5.3773    4.9926    1.4044 C   0  0  1  0  0  0  0  0  0  0  0  0
   -5.3011    5.5590    2.3325 H   0  0  0  0  0  0  0  0  0  0  0  0
   -5.5240    5.9592    0.2276 C   0  0  2  0  0  0  0  0  0  0  0  0
   -5.6002    5.3927   -0.7006 H   0  0  0  0  0  0  0  0  0  0  0  0
   -4.3014    6.8770    0.1659 C   0  0  0  0  0  0  0  0  0  0  0  0
   -6.7030    6.7474    0.4027 O   0  0  0  0  0  0  0  0  0  0  0  0
   -6.5815    4.0885    1.4651 C   0  0  0  0  0  0  0  0  0  0  0  0
   -6.4441    2.8920    1.3683 O   0  0  0  0  0  0  0  0  0  0  0  0
   -0.6916    1.5321    1.1838 O   0  0  0  0  0  0  0  0  0  0  0  0
   -0.0278    1.0639    0.0081 C   0  0  0  0  0  0  0  0  0  0  0  0
   -0.7729    1.5633   -1.2313 C   0  0  0  0  0  0  0  0  0  0  0  0
    4.2893   -1.8332    7.0614 H   0  0  0  0  0  0  0  0  0  0  0  0
    3.6834   -0.3288    7.7948 H   0  0  0  0  0  0  0  0  0  0  0  0
    2.6748   -1.7954    7.8100 H   0  0  0  0  0  0  0  0  0  0  0  0
    2.5115   -1.7087    5.3373 H   0  0  0  0  0  0  0  0  0  0  0  0
    3.5200   -0.2421    5.3221 H   0  0  0  0  0  0  0  0  0  0  0  0
    1.0551    1.9074    7.1001 H   0  0  0  0  0  0  0  0  0  0  0  0
    2.3771    1.0064    7.8805 H   0  0  0  0  0  0  0  0  0  0  0  0
    2.6696    1.8696    6.3515 H   0  0  0  0  0  0  0  0  0  0  0  0
    0.2453   -1.6556    6.3881 H   0  0  0  0  0  0  0  0  0  0  0  0
    0.9614   -1.0522    7.9019 H   0  0  0  0  0  0  0  0  0  0  0  0
   -0.3605   -0.1512    7.1215 H   0  0  0  0  0  0  0  0  0  0  0  0
    2.4227   -0.5843    3.6679 H   0  0  0  0  0  0  0  0  0  0  0  0
    1.4454    0.0548    1.5034 H   0  0  0  0  0  0  0  0  0  0  0  0
   -0.6488    1.5487    5.7163 H   0  0  0  0  0  0  0  0  0  0  0  0
   -2.3928    2.4829    5.7116 H   0  0  0  0  0  0  0  0  0  0  0  0
   -3.8127    4.0353    0.3349 H   0  0  0  0  0  0  0  0  0  0  0  0
   -4.4060    7.5657   -0.6725 H   0  0  0  0  0  0  0  0  0  0  0  0
   -4.2252    7.4435    1.0941 H   0  0  0  0  0  0  0  0  0  0  0  0
   -3.4021    6.2758    0.0323 H   0  0  0  0  0  0  0  0  0  0  0  0
   -6.8597    7.3840   -0.3081 H   0  0  0  0  0  0  0  0  0  0  0  0
   -0.0132   -0.0260    0.0087 H   0  0  0  0  0  0  0  0  0  0  0  0
    0.9949    1.4410   -0.0062 H   0  0  0  0  0  0  0  0  0  0  0  0
   -0.2665    1.2063   -2.1281 H   0  0  0  0  0  0  0  0  0  0  0  0
   -1.7955    1.1863   -1.2170 H   0  0  0  0  0  0  0  0  0  0  0  0
   -0.7874    2.6532   -1.2319 H   0  0  0  0  0  0  0  0  0  0  0  0
   -7.8066    4.6126    1.6267 O   0  5  0  0  0  0  0  0  0  0  0  0
  1  2  1  0  0  0  0
  1 29  1  0  0  0  0
  1 30  1  0  0  0  0
  1 31  1  0  0  0  0
  2  3  1  0  0  0  0
  2 32  1  0  0  0  0
  2 33  1  0  0  0  0
  3  4  1  0  0  0  0
  3  5  1  0  0  0  0
  3  6  1  0  0  0  0
  4 34  1  0  0  0  0
  4 35  1  0  0  0  0
  4 36  1  0  0  0  0
  5 37  1  0  0  0  0
  5 38  1  0  0  0  0
  5 39  1  0  0  0  0
  6 11  2  0  0  0  0
  6  7  1  0  0  0  0
  7  8  2  0  0  0  0
  7 40  1  0  0  0  0
  8  9  1  0  0  0  0
  8 41  1  0  0  0  0
  9 10  2  0  0  0  0
  9 26  1  0  0  0  0
 10 11  1  0  0  0  0
 10 12  1  0  0  0  0
 11 42  1  0  0  0  0
 12 16  1  0  0  0  0
 12 13  2  0  0  0  0
 13 14  1  0  0  0  0
 13 43  1  0  0  0  0
 14 15  1  0  0  0  0
 15 16  2  0  0  0  0
 15 17  1  0  0  0  0
 17 18  1  0  0  0  0
 17 44  1  0  0  0  0
 18 19  1  0  0  0  0
 18 20  1  0  0  0  0
 18 24  1  0  0  0  0
 20 21  1  0  0  0  0
 20 22  1  0  0  0  0
 20 23  1  0  0  0  0
 22 45  1  0  0  0  0
 22 46  1  0  0  0  0
 22 47  1  0  0  0  0
 23 48  1  0  0  0  0
 24 25  2  0  0  0  0
 24 54  1  0  0  0  0
 26 27  1  0  0  0  0
 27 28  1  0  0  0  0
 27 49  1  0  0  0  0
 27 50  1  0  0  0  0
 28 51  1  0  0  0  0
 28 52  1  0  0  0  0
 28 53  1  0  0  0  0
M  CHG  1  54  -1
M  END
$$$$
ZINC03856845
  -OEChem-08230709463D

 54 55  0     1  0  0  0  0  0999 V2000
    3.4037   -1.2225    7.2369 C   0  0  0  0  0  0  0  0  0  0  0  0
    2.7911   -0.8151    5.8953 C   0  0  0  0  0  0  0  0  0  0  0  0
    1.5481    0.0422    6.1415 C   0  0  0  0  0  0  0  0  0  0  0  0
    1.9406    1.2966    6.9248 C   0  0  0  0  0  0  0  0  0  0  0  0
    0.5250   -0.7620    6.9461 C   0  0  0  0  0  0  0  0  0  0  0  0
    0.9447    0.4434    4.8201 C   0  0  0  0  0  0  0  0  0  0  0  0
    1.5330    0.0272    3.6389 C   0  0  0  0  0  0  0  0  0  0  0  0
    0.9841    0.3862    2.4220 C   0  0  0  0  0  0  0  0  0  0  0  0
   -0.1539    1.1748    2.3795 C   0  0  0  0  0  0  0  0  0  0  0  0
   -0.7507    1.5970    3.5713 C   0  0  0  0  0  0  0  0  0  0  0  0
   -0.1925    1.2252    4.7924 C   0  0  0  0  0  0  0  0  0  0  0  0
   -1.9728    2.4364    3.5358 C   0  0  0  0  0  0  0  0  0  0  0  0
   -2.6253    2.7546    4.6927 C   0  0  0  0  0  0  0  0  0  0  0  0
   -3.9691    3.7472    4.0560 S   0  0  0  0  0  0  0  0  0  0  0  0
   -3.5351    3.6316    2.3261 C   0  0  0  0  0  0  0  0  0  0  0  0
   -2.4483    2.8832    2.3755 N   0  0  0  0  0  0  0  0  0  0  0  0
   -4.1709    4.1813    1.2247 N   0  0  0  0  0  0  0  0  0  0  0  0
   -5.3797    4.9893    1.4044 C   0  0  2  0  0  0  0  0  0  0  0  0
   -5.9659    4.5873    2.2307 H   0  0  0  0  0  0  0  0  0  0  0  0
   -6.2133    4.9519    0.1220 C   0  0  2  0  0  0  0  0  0  0  0  0
   -7.1127    5.5531    0.2557 H   0  0  0  0  0  0  0  0  0  0  0  0
   -6.6075    3.5065   -0.1881 C   0  0  0  0  0  0  0  0  0  0  0  0
   -5.4447    5.4790   -0.9613 O   0  0  0  0  0  0  0  0  0  0  0  0
   -4.9914    6.4130    1.7098 C   0  0  0  0  0  0  0  0  0  0  0  0
   -3.8247    6.7212    1.7712 O   0  0  0  0  0  0  0  0  0  0  0  0
   -0.6916    1.5321    1.1838 O   0  0  0  0  0  0  0  0  0  0  0  0
   -0.0277    1.0640    0.0081 C   0  0  0  0  0  0  0  0  0  0  0  0
   -0.7728    1.5634   -1.2313 C   0  0  0  0  0  0  0  0  0  0  0  0
    4.2892   -1.8333    7.0614 H   0  0  0  0  0  0  0  0  0  0  0  0
    3.6833   -0.3288    7.7948 H   0  0  0  0  0  0  0  0  0  0  0  0
    2.6748   -1.7954    7.8101 H   0  0  0  0  0  0  0  0  0  0  0  0
    2.5114   -1.7087    5.3373 H   0  0  0  0  0  0  0  0  0  0  0  0
    3.5200   -0.2422    5.3221 H   0  0  0  0  0  0  0  0  0  0  0  0
    1.0551    1.9074    7.1002 H   0  0  0  0  0  0  0  0  0  0  0  0
    2.3770    1.0064    7.8805 H   0  0  0  0  0  0  0  0  0  0  0  0
    2.6695    1.8696    6.3516 H   0  0  0  0  0  0  0  0  0  0  0  0
    0.2453   -1.6556    6.3881 H   0  0  0  0  0  0  0  0  0  0  0  0
    0.9614   -1.0522    7.9019 H   0  0  0  0  0  0  0  0  0  0  0  0
   -0.3606   -0.1512    7.1215 H   0  0  0  0  0  0  0  0  0  0  0  0
    2.4227   -0.5843    3.6679 H   0  0  0  0  0  0  0  0  0  0  0  0
    1.4454    0.0548    1.5034 H   0  0  0  0  0  0  0  0  0  0  0  0
   -0.6489    1.5486    5.7163 H   0  0  0  0  0  0  0  0  0  0  0  0
   -2.3929    2.4825    5.7117 H   0  0  0  0  0  0  0  0  0  0  0  0
   -3.8157    4.0313    0.3347 H   0  0  0  0  0  0  0  0  0  0  0  0
   -7.1937    3.1045    0.6382 H   0  0  0  0  0  0  0  0  0  0  0  0
   -7.2014    3.4799   -1.1017 H   0  0  0  0  0  0  0  0  0  0  0  0
   -5.7081    2.9053   -0.3218 H   0  0  0  0  0  0  0  0  0  0  0  0
   -4.6281    4.9921   -1.1376 H   0  0  0  0  0  0  0  0  0  0  0  0
   -0.0131   -0.0259    0.0087 H   0  0  0  0  0  0  0  0  0  0  0  0
    0.9949    1.4410   -0.0062 H   0  0  0  0  0  0  0  0  0  0  0  0
   -1.7954    1.1864   -1.2170 H   0  0  0  0  0  0  0  0  0  0  0  0
   -0.7874    2.6533   -1.2319 H   0  0  0  0  0  0  0  0  0  0  0  0
   -0.2664    1.2063   -2.1281 H   0  0  0  0  0  0  0  0  0  0  0  0
   -5.9417    7.3388    1.9138 O   0  5  0  0  0  0  0  0  0  0  0  0
  1  2  1  0  0  0  0
  1 29  1  0  0  0  0
  1 30  1  0  0  0  0
  1 31  1  0  0  0  0
  2  3  1  0  0  0  0
  2 32  1  0  0  0  0
  2 33  1  0  0  0  0
  3  4  1  0  0  0  0
  3  5  1  0  0  0  0
  3  6  1  0  0  0  0
  4 34  1  0  0  0  0
  4 35  1  0  0  0  0
  4 36  1  0  0  0  0
  5 37  1  0  0  0  0
  5 38  1  0  0  0  0
  5 39  1  0  0  0  0
  6 11  2  0  0  0  0
  6  7  1  0  0  0  0
  7  8  2  0  0  0  0
  7 40  1  0  0  0  0
  8  9  1  0  0  0  0
  8 41  1  0  0  0  0
  9 10  2  0  0  0  0
  9 26  1  0  0  0  0
 10 11  1  0  0  0  0
 10 12  1  0  0  0  0
 11 42  1  0  0  0  0
 12 16  1  0  0  0  0
 12 13  2  0  0  0  0
 13 14  1  0  0  0  0
 13 43  1  0  0  0  0
 14 15  1  0  0  0  0
 15 16  2  0  0  0  0
 15 17  1  0  0  0  0
 17 18  1  0  0  0  0
 17 44  1  0  0  0  0
 18 19  1  0  0  0  0
 18 20  1  0  0  0  0
 18 24  1  0  0  0  0
 20 21  1  0  0  0  0
 20 22  1  0  0  0  0
 20 23  1  0  0  0  0
 22 45  1  0  0  0  0
 22 46  1  0  0  0  0
 22 47  1  0  0  0  0
 23 48  1  0  0  0  0
 24 25  2  0  0  0  0
 24 54  1  0  0  0  0
 26 27  1  0  0  0  0
 27 28  1  0  0  0  0
 27 49  1  0  0  0  0
 27 50  1  0  0  0  0
 28 51  1  0  0  0  0
 28 52  1  0  0  0  0
 28 53  1  0  0  0  0
M  CHG  1  54  -1
M  END
$$$$
ZINC03856846
  -OEChem-08230709463D

 56 57  0     1  0  0  0  0  0999 V2000
   -0.6469    3.5450    1.3410 C   0  0  0  0  0  0  0  0  0  0  0  0
   -0.7348    2.0192    1.2692 C   0  0  0  0  0  0  0  0  0  0  0  0
   -0.0187    1.5258    0.0104 C   0  0  1  0  0  0  0  0  0  0  0  0
    1.0039    1.9031    0.0027 H   0  0  0  0  0  0  0  0  0  0  0  0
    0.0021   -0.0041    0.0020 C   0  0  0  0  0  0  0  0  0  0  0  0
   -0.7475    2.0250   -1.2105 C   0  0  0  0  0  0  0  0  0  0  0  0
   -2.0638    1.6699   -1.4202 C   0  0  0  0  0  0  0  0  0  0  0  0
   -2.7388    2.1364   -2.5471 C   0  0  0  0  0  0  0  0  0  0  0  0
   -2.0774    2.9513   -3.4645 C   0  0  0  0  0  0  0  0  0  0  0  0
   -0.7596    3.2985   -3.2517 C   0  0  0  0  0  0  0  0  0  0  0  0
   -0.0919    2.8370   -2.1256 C   0  0  0  0  0  0  0  0  0  0  0  0
    1.2068    3.1805   -1.9190 O   0  0  0  0  0  0  0  0  0  0  0  0
    2.2022    2.3134   -2.4661 C   0  0  0  0  0  0  0  0  0  0  0  0
   -0.0437    4.1794   -4.2429 C   0  0  2  0  0  0  0  0  0  0  0  0
    0.9809    4.3438   -3.9093 H   0  0  0  0  0  0  0  0  0  0  0  0
   -0.7679    5.5232   -4.3470 C   0  0  0  0  0  0  0  0  0  0  0  0
   -0.0310    3.4994   -5.6134 C   0  0  0  0  0  0  0  0  0  0  0  0
    0.8018    4.3335   -6.5889 C   0  0  0  0  0  0  0  0  0  0  0  0
   -4.1561    1.7615   -2.7727 C   0  0  0  0  0  0  0  0  0  0  0  0
   -4.8095    0.9634   -1.8776 C   0  0  0  0  0  0  0  0  0  0  0  0
   -6.4222    0.8554   -2.6418 S   0  0  0  0  0  0  0  0  0  0  0  0
   -6.0663    1.8759   -4.0651 C   0  0  0  0  0  0  0  0  0  0  0  0
   -4.8060    2.2039   -3.8468 N   0  0  0  0  0  0  0  0  0  0  0  0
   -6.8950    2.2328   -5.1165 N   0  0  0  0  0  0  0  0  0  0  0  0
   -8.2788    1.7534   -5.1538 C   0  0  2  0  0  0  0  0  0  0  0  0
   -8.6732    1.7027   -4.1389 H   0  0  0  0  0  0  0  0  0  0  0  0
   -8.3194    0.3611   -5.7869 C   0  0  0  0  0  0  0  0  0  0  0  0
   -9.1171    2.7018   -5.9716 C   0  0  0  0  0  0  0  0  0  0  0  0
   -8.6106    3.6779   -6.4721 O   0  0  0  0  0  0  0  0  0  0  0  0
    0.3997    3.8474    1.3763 H   0  0  0  0  0  0  0  0  0  0  0  0
   -1.1207    3.9781    0.4601 H   0  0  0  0  0  0  0  0  0  0  0  0
   -1.1571    3.8965    2.2378 H   0  0  0  0  0  0  0  0  0  0  0  0
   -1.7814    1.7168    1.2339 H   0  0  0  0  0  0  0  0  0  0  0  0
   -0.2610    1.5861    2.1502 H   0  0  0  0  0  0  0  0  0  0  0  0
   -1.0205   -0.3814    0.0098 H   0  0  0  0  0  0  0  0  0  0  0  0
    0.5123   -0.3556   -0.8948 H   0  0  0  0  0  0  0  0  0  0  0  0
    0.5293   -0.3651    0.8851 H   0  0  0  0  0  0  0  0  0  0  0  0
   -2.5720    1.0346   -0.7100 H   0  0  0  0  0  0  0  0  0  0  0  0
   -2.5963    3.3107   -4.3408 H   0  0  0  0  0  0  0  0  0  0  0  0
    2.0911    1.3171   -2.0382 H   0  0  0  0  0  0  0  0  0  0  0  0
    2.0821    2.2596   -3.5481 H   0  0  0  0  0  0  0  0  0  0  0  0
    3.1926    2.7022   -2.2293 H   0  0  0  0  0  0  0  0  0  0  0  0
   -0.7770    6.0076   -3.3706 H   0  0  0  0  0  0  0  0  0  0  0  0
   -0.2502    6.1603   -5.0640 H   0  0  0  0  0  0  0  0  0  0  0  0
   -1.7925    5.3588   -4.6806 H   0  0  0  0  0  0  0  0  0  0  0  0
    0.4053    2.5048   -5.5215 H   0  0  0  0  0  0  0  0  0  0  0  0
   -1.0516    3.4153   -5.9868 H   0  0  0  0  0  0  0  0  0  0  0  0
    0.3655    5.3281   -6.6809 H   0  0  0  0  0  0  0  0  0  0  0  0
    1.8224    4.4176   -6.2155 H   0  0  0  0  0  0  0  0  0  0  0  0
    0.8109    3.8491   -7.5653 H   0  0  0  0  0  0  0  0  0  0  0  0
   -4.4509    0.5200   -0.9604 H   0  0  0  0  0  0  0  0  0  0  0  0
   -6.5589    2.8000   -5.8280 H   0  0  0  0  0  0  0  0  0  0  0  0
   -7.9251    0.4118   -6.8017 H   0  0  0  0  0  0  0  0  0  0  0  0
   -7.7131   -0.3248   -5.1953 H   0  0  0  0  0  0  0  0  0  0  0  0
   -9.3491    0.0045   -5.8146 H   0  0  0  0  0  0  0  0  0  0  0  0
  -10.4265    2.4621   -6.1442 O   0  5  0  0  0  0  0  0  0  0  0  0
  1  2  1  0  0  0  0
  1 30  1  0  0  0  0
  1 31  1  0  0  0  0
  1 32  1  0  0  0  0
  2  3  1  0  0  0  0
  2 33  1  0  0  0  0
  2 34  1  0  0  0  0
  3  4  1  0  0  0  0
  3  5  1  0  0  0  0
  3  6  1  0  0  0  0
  5 35  1  0  0  0  0
  5 36  1  0  0  0  0
  5 37  1  0  0  0  0
  6 11  2  0  0  0  0
  6  7  1  0  0  0  0
  7  8  2  0  0  0  0
  7 38  1  0  0  0  0
  8  9  1  0  0  0  0
  8 19  1  0  0  0  0
  9 10  2  0  0  0  0
  9 39  1  0  0  0  0
 10 11  1  0  0  0  0
 10 14  1  0  0  0  0
 11 12  1  0  0  0  0
 12 13  1  0  0  0  0
 13 40  1  0  0  0  0
 13 41  1  0  0  0  0
 13 42  1  0  0  0  0
 14 15  1  0  0  0  0
 14 16  1  0  0  0  0
 14 17  1  0  0  0  0
 16 43  1  0  0  0  0
 16 44  1  0  0  0  0
 16 45  1  0  0  0  0
 17 18  1  0  0  0  0
 17 46  1  0  0  0  0
 17 47  1  0  0  0  0
 18 48  1  0  0  0  0
 18 49  1  0  0  0  0
 18 50  1  0  0  0  0
 19 23  1  0  0  0  0
 19 20  2  0  0  0  0
 20 21  1  0  0  0  0
 20 51  1  0  0  0  0
 21 22  1  0  0  0  0
 22 23  2  0  0  0  0
 22 24  1  0  0  0  0
 24 25  1  0  0  0  0
 24 52  1  0  0  0  0
 25 26  1  0  0  0  0
 25 27  1  0  0  0  0
 25 28  1  0  0  0  0
 27 53  1  0  0  0  0
 27 54  1  0  0  0  0
 27 55  1  0  0  0  0
 28 29  2  0  0  0  0
 28 56  1  0  0  0  0
M  CHG  1  56  -1
M  END
$$$$
ZINC03856847
  -OEChem-08230709463D

 53 54  0     1  0  0  0  0  0999 V2000
    1.6079    3.3637    7.8600 C   0  0  0  0  0  0  0  0  0  0  0  0
    1.1263    2.2854    6.8872 C   0  0  0  0  0  0  0  0  0  0  0  0
    1.7630    2.5152    5.5151 C   0  0  1  0  0  0  0  0  0  0  0  0
    1.5482    3.5300    5.1802 H   0  0  0  0  0  0  0  0  0  0  0  0
    3.2773    2.3214    5.6167 C   0  0  0  0  0  0  0  0  0  0  0  0
    1.1957    1.5293    4.5266 C   0  0  0  0  0  0  0  0  0  0  0  0
    1.3451    0.1748    4.7413 C   0  0  0  0  0  0  0  0  0  0  0  0
    0.8205   -0.7363    3.8263 C   0  0  0  0  0  0  0  0  0  0  0  0
    0.1461   -0.2753    2.6966 C   0  0  0  0  0  0  0  0  0  0  0  0
    0.0000    1.0800    2.4877 C   0  0  0  0  0  0  0  0  0  0  0  0
    0.5287    1.9851    3.3981 C   0  0  0  0  0  0  0  0  0  0  0  0
    0.3879    3.3203    3.1865 O   0  0  0  0  0  0  0  0  0  0  0  0
   -0.7748    3.9449    3.7344 C   0  0  0  0  0  0  0  0  0  0  0  0
   -0.7288    1.5792    1.2668 C   0  0  1  0  0  0  0  0  0  0  0  0
   -0.7436    2.6691    1.2728 H   0  0  0  0  0  0  0  0  0  0  0  0
   -0.0127    1.0858    0.0080 C   0  0  0  0  0  0  0  0  0  0  0  0
   -2.1642    1.0497    1.2777 C   0  0  0  0  0  0  0  0  0  0  0  0
   -2.9403    1.6557    0.1066 C   0  0  0  0  0  0  0  0  0  0  0  0
    0.9789   -2.1934    4.0543 C   0  0  0  0  0  0  0  0  0  0  0  0
    1.6386   -2.6512    5.1590 C   0  0  0  0  0  0  0  0  0  0  0  0
    1.5200   -4.4177    4.9105 S   0  0  0  0  0  0  0  0  0  0  0  0
    0.6111   -4.3688    3.3725 C   0  0  0  0  0  0  0  0  0  0  0  0
    0.4749   -3.0685    3.1871 N   0  0  0  0  0  0  0  0  0  0  0  0
    0.1629   -5.4176    2.5859 N   0  0  0  0  0  0  0  0  0  0  0  0
    0.4244   -6.8009    2.9912 C   0  0  0  0  0  0  0  0  0  0  0  0
   -0.1630   -7.7426    1.9718 C   0  0  0  0  0  0  0  0  0  0  0  0
   -0.7408   -7.3033    1.0058 O   0  0  0  0  0  0  0  0  0  0  0  0
    2.6930    3.3134    7.9500 H   0  0  0  0  0  0  0  0  0  0  0  0
    1.3196    4.3459    7.4855 H   0  0  0  0  0  0  0  0  0  0  0  0
    1.1543    3.2000    8.8375 H   0  0  0  0  0  0  0  0  0  0  0  0
    0.0411    2.3358    6.7972 H   0  0  0  0  0  0  0  0  0  0  0  0
    1.4146    1.3032    7.2617 H   0  0  0  0  0  0  0  0  0  0  0  0
    3.4921    1.3066    5.9517 H   0  0  0  0  0  0  0  0  0  0  0  0
    3.7310    2.4851    4.6392 H   0  0  0  0  0  0  0  0  0  0  0  0
    3.6877    3.0345    6.3317 H   0  0  0  0  0  0  0  0  0  0  0  0
    1.8678   -0.1792    5.6176 H   0  0  0  0  0  0  0  0  0  0  0  0
   -0.2613   -0.9788    1.9855 H   0  0  0  0  0  0  0  0  0  0  0  0
   -0.7638    5.0078    3.4934 H   0  0  0  0  0  0  0  0  0  0  0  0
   -1.6678    3.4854    3.3106 H   0  0  0  0  0  0  0  0  0  0  0  0
   -0.7795    3.8177    4.8169 H   0  0  0  0  0  0  0  0  0  0  0  0
    0.0021   -0.0041    0.0020 H   0  0  0  0  0  0  0  0  0  0  0  0
    1.0099    1.4631    0.0003 H   0  0  0  0  0  0  0  0  0  0  0  0
   -0.5399    1.4469   -0.8751 H   0  0  0  0  0  0  0  0  0  0  0  0
   -2.1517   -0.0361    1.1822 H   0  0  0  0  0  0  0  0  0  0  0  0
   -2.6465    1.3263    2.2152 H   0  0  0  0  0  0  0  0  0  0  0  0
   -2.4580    1.3790   -0.8309 H   0  0  0  0  0  0  0  0  0  0  0  0
   -3.9629    1.2784    0.1144 H   0  0  0  0  0  0  0  0  0  0  0  0
   -2.9529    2.7414    0.2022 H   0  0  0  0  0  0  0  0  0  0  0  0
    2.1035   -2.0983    5.9619 H   0  0  0  0  0  0  0  0  0  0  0  0
   -0.3240   -5.2359    1.7668 H   0  0  0  0  0  0  0  0  0  0  0  0
    1.5002   -6.9628    3.0579 H   0  0  0  0  0  0  0  0  0  0  0  0
   -0.0320   -6.9871    3.9633 H   0  0  0  0  0  0  0  0  0  0  0  0
   -0.0444   -9.0694    2.1369 O   0  5  0  0  0  0  0  0  0  0  0  0
  1  2  1  0  0  0  0
  1 28  1  0  0  0  0
  1 29  1  0  0  0  0
  1 30  1  0  0  0  0
  2  3  1  0  0  0  0
  2 31  1  0  0  0  0
  2 32  1  0  0  0  0
  3  4  1  0  0  0  0
  3  5  1  0  0  0  0
  3  6  1  0  0  0  0
  5 33  1  0  0  0  0
  5 34  1  0  0  0  0
  5 35  1  0  0  0  0
  6 11  2  0  0  0  0
  6  7  1  0  0  0  0
  7  8  2  0  0  0  0
  7 36  1  0  0  0  0
  8  9  1  0  0  0  0
  8 19  1  0  0  0  0
  9 10  2  0  0  0  0
  9 37  1  0  0  0  0
 10 11  1  0  0  0  0
 10 14  1  0  0  0  0
 11 12  1  0  0  0  0
 12 13  1  0  0  0  0
 13 38  1  0  0  0  0
 13 39  1  0  0  0  0
 13 40  1  0  0  0  0
 14 15  1  0  0  0  0
 14 16  1  0  0  0  0
 14 17  1  0  0  0  0
 16 41  1  0  0  0  0
 16 42  1  0  0  0  0
 16 43  1  0  0  0  0
 17 18  1  0  0  0  0
 17 44  1  0  0  0  0
 17 45  1  0  0  0  0
 18 46  1  0  0  0  0
 18 47  1  0  0  0  0
 18 48  1  0  0  0  0
 19 23  1  0  0  0  0
 19 20  2  0  0  0  0
 20 21  1  0  0  0  0
 20 49  1  0  0  0  0
 21 22  1  0  0  0  0
 22 23  2  0  0  0  0
 22 24  1  0  0  0  0
 24 25  1  0  0  0  0
 24 50  1  0  0  0  0
 25 26  1  0  0  0  0
 25 51  1  0  0  0  0
 25 52  1  0  0  0  0
 26 27  2  0  0  0  0
 26 53  1  0  0  0  0
M  CHG  1  53  -1
M  END
$$$$
ZINC03856892
  -OEChem-08230709463D

 56 57  0     1  0  0  0  0  0999 V2000
   -4.2675    5.1054   -3.3752 C   0  0  0  0  0  0  0  0  0  0  0  0
   -4.0912    4.5706   -1.9526 C   0  0  1  0  0  0  0  0  0  0  0  0
   -3.6579    5.3479   -1.3233 H   0  0  0  0  0  0  0  0  0  0  0  0
   -5.4328    4.1654   -1.3984 C   0  0  0  0  0  0  0  0  0  0  0  0
   -5.6252    3.0224   -1.0571 O   0  0  0  0  0  0  0  0  0  0  0  0
   -3.2007    3.4075   -1.9750 N   0  0  0  0  0  0  0  0  0  0  0  0
   -1.8273    3.5858   -1.9359 C   0  0  0  0  0  0  0  0  0  0  0  0
   -0.8670    2.6796   -1.9470 N   0  0  0  0  0  0  0  0  0  0  0  0
    0.4151    3.0351   -1.9039 C   0  0  0  0  0  0  0  0  0  0  0  0
    0.7398    4.3604   -1.8471 C   0  0  0  0  0  0  0  0  0  0  0  0
   -0.8864    5.1033   -1.8575 S   0  0  0  0  0  0  0  0  0  0  0  0
    1.4799    2.0025   -1.9168 C   0  0  0  0  0  0  0  0  0  0  0  0
    2.8208    2.3815   -1.8766 C   0  0  0  0  0  0  0  0  0  0  0  0
    3.8085    1.4187   -1.8839 C   0  0  0  0  0  0  0  0  0  0  0  0
    3.4687    0.0741   -1.9413 C   0  0  0  0  0  0  0  0  0  0  0  0
    2.1345   -0.3063   -1.9867 C   0  0  0  0  0  0  0  0  0  0  0  0
    1.1420    0.6514   -1.9749 C   0  0  0  0  0  0  0  0  0  0  0  0
    1.7701   -1.7673   -2.0496 C   0  0  0  0  0  0  0  0  0  0  0  0
    0.2471   -1.9131   -2.0583 C   0  0  0  0  0  0  0  0  0  0  0  0
    2.3487   -2.3828   -3.3252 C   0  0  0  0  0  0  0  0  0  0  0  0
    2.3445   -2.4891   -0.8290 C   0  0  0  0  0  0  0  0  0  0  0  0
    4.4444   -0.8720   -1.9536 O   0  0  0  0  0  0  0  0  0  0  0  0
    5.1453   -1.0651   -3.1838 C   0  0  0  0  0  0  0  0  0  0  0  0
    5.2582    1.8273   -1.8357 C   0  0  0  0  0  0  0  0  0  0  0  0
    5.3557    3.3317   -1.5749 C   0  0  0  0  0  0  0  0  0  0  0  0
    5.9650    1.0679   -0.7111 C   0  0  0  0  0  0  0  0  0  0  0  0
    5.9259    1.4970   -3.1721 C   0  0  0  0  0  0  0  0  0  0  0  0
   -3.2972    5.3984   -3.7760 H   0  0  0  0  0  0  0  0  0  0  0  0
   -4.7008    4.3280   -4.0045 H   0  0  0  0  0  0  0  0  0  0  0  0
   -4.9301    5.9707   -3.3585 H   0  0  0  0  0  0  0  0  0  0  0  0
   -3.5726    2.5126   -2.0172 H   0  0  0  0  0  0  0  0  0  0  0  0
    1.7114    4.8303   -1.8069 H   0  0  0  0  0  0  0  0  0  0  0  0
    3.0859    3.4276   -1.8364 H   0  0  0  0  0  0  0  0  0  0  0  0
    0.1041    0.3548   -2.0103 H   0  0  0  0  0  0  0  0  0  0  0  0
   -0.1622   -1.3988   -2.9279 H   0  0  0  0  0  0  0  0  0  0  0  0
   -0.0165   -2.9697   -2.1037 H   0  0  0  0  0  0  0  0  0  0  0  0
   -0.1651   -1.4745   -1.1495 H   0  0  0  0  0  0  0  0  0  0  0  0
    3.2946   -2.8731   -3.0953 H   0  0  0  0  0  0  0  0  0  0  0  0
    1.6476   -3.1152   -3.7255 H   0  0  0  0  0  0  0  0  0  0  0  0
    2.5159   -1.5986   -4.0635 H   0  0  0  0  0  0  0  0  0  0  0  0
    1.9324   -2.0506    0.0798 H   0  0  0  0  0  0  0  0  0  0  0  0
    2.0810   -3.5458   -0.8744 H   0  0  0  0  0  0  0  0  0  0  0  0
    3.4296   -2.3852   -0.8228 H   0  0  0  0  0  0  0  0  0  0  0  0
    6.1178   -1.5139   -2.9812 H   0  0  0  0  0  0  0  0  0  0  0  0
    4.5682   -1.7255   -3.8310 H   0  0  0  0  0  0  0  0  0  0  0  0
    5.2847   -0.1034   -3.6774 H   0  0  0  0  0  0  0  0  0  0  0  0
    4.8801    3.5670   -0.6228 H   0  0  0  0  0  0  0  0  0  0  0  0
    6.4043    3.6273   -1.5400 H   0  0  0  0  0  0  0  0  0  0  0  0
    4.8522    3.8727   -2.3761 H   0  0  0  0  0  0  0  0  0  0  0  0
    5.8956   -0.0039   -0.8969 H   0  0  0  0  0  0  0  0  0  0  0  0
    7.0136    1.3634   -0.6762 H   0  0  0  0  0  0  0  0  0  0  0  0
    5.4894    1.3032    0.2410 H   0  0  0  0  0  0  0  0  0  0  0  0
    5.1650    1.4179   -3.9486 H   0  0  0  0  0  0  0  0  0  0  0  0
    6.6294    2.2879   -3.4321 H   0  0  0  0  0  0  0  0  0  0  0  0
    6.4588    0.5499   -3.0878 H   0  0  0  0  0  0  0  0  0  0  0  0
   -6.4139    5.0743   -1.2839 O   0  5  0  0  0  0  0  0  0  0  0  0
  1  2  1  0  0  0  0
  1 28  1  0  0  0  0
  1 29  1  0  0  0  0
  1 30  1  0  0  0  0
  2  3  1  0  0  0  0
  2  4  1  0  0  0  0
  2  6  1  0  0  0  0
  4  5  2  0  0  0  0
  4 56  1  0  0  0  0
  6  7  1  0  0  0  0
  6 31  1  0  0  0  0
  7 11  1  0  0  0  0
  7  8  2  0  0  0  0
  8  9  1  0  0  0  0
  9 10  2  0  0  0  0
  9 12  1  0  0  0  0
 10 11  1  0  0  0  0
 10 32  1  0  0  0  0
 12 17  2  0  0  0  0
 12 13  1  0  0  0  0
 13 14  2  0  0  0  0
 13 33  1  0  0  0  0
 14 15  1  0  0  0  0
 14 24  1  0  0  0  0
 15 16  2  0  0  0  0
 15 22  1  0  0  0  0
 16 17  1  0  0  0  0
 16 18  1  0  0  0  0
 17 34  1  0  0  0  0
 18 19  1  0  0  0  0
 18 20  1  0  0  0  0
 18 21  1  0  0  0  0
 19 35  1  0  0  0  0
 19 36  1  0  0  0  0
 19 37  1  0  0  0  0
 20 38  1  0  0  0  0
 20 39  1  0  0  0  0
 20 40  1  0  0  0  0
 21 41  1  0  0  0  0
 21 42  1  0  0  0  0
 21 43  1  0  0  0  0
 22 23  1  0  0  0  0
 23 44  1  0  0  0  0
 23 45  1  0  0  0  0
 23 46  1  0  0  0  0
 24 25  1  0  0  0  0
 24 26  1  0  0  0  0
 24 27  1  0  0  0  0
 25 47  1  0  0  0  0
 25 48  1  0  0  0  0
 25 49  1  0  0  0  0
 26 50  1  0  0  0  0
 26 51  1  0  0  0  0
 26 52  1  0  0  0  0
 27 53  1  0  0  0  0
 27 54  1  0  0  0  0
 27 55  1  0  0  0  0
M  CHG  1  56  -1
M  END
$$$$
ZINC03856893
  -OEChem-08230709463D

 56 57  0     1  0  0  0  0  0999 V2000
    9.5203   -0.2937    0.9297 C   0  0  0  0  0  0  0  0  0  0  0  0
    8.5708   -1.4617    1.2036 C   0  0  2  0  0  0  0  0  0  0  0  0
    8.7558   -1.8535    2.2038 H   0  0  0  0  0  0  0  0  0  0  0  0
    8.8055   -2.5490    0.1868 C   0  0  0  0  0  0  0  0  0  0  0  0
    7.9072   -2.8994   -0.5413 O   0  0  0  0  0  0  0  0  0  0  0  0
    7.1847   -0.9967    1.1100 N   0  0  0  0  0  0  0  0  0  0  0  0
    6.5734   -0.4153    2.2091 C   0  0  0  0  0  0  0  0  0  0  0  0
    5.3464    0.0576    2.3290 N   0  0  0  0  0  0  0  0  0  0  0  0
    4.9239    0.5922    3.4725 C   0  0  0  0  0  0  0  0  0  0  0  0
    5.7726    0.6415    4.5413 C   0  0  0  0  0  0  0  0  0  0  0  0
    7.2348   -0.1128    3.8416 S   0  0  0  0  0  0  0  0  0  0  0  0
    3.5436    1.1231    3.5866 C   0  0  0  0  0  0  0  0  0  0  0  0
    3.1050    1.6761    4.7887 C   0  0  0  0  0  0  0  0  0  0  0  0
    1.8208    2.1685    4.8917 C   0  0  0  0  0  0  0  0  0  0  0  0
    0.9670    2.1188    3.7983 C   0  0  0  0  0  0  0  0  0  0  0  0
    1.3990    1.5641    2.6014 C   0  0  0  0  0  0  0  0  0  0  0  0
    2.6820    1.0699    2.4920 C   0  0  0  0  0  0  0  0  0  0  0  0
    0.4671    1.5073    1.4185 C   0  0  0  0  0  0  0  0  0  0  0  0
    1.2634    1.1641    0.1579 C   0  0  0  0  0  0  0  0  0  0  0  0
   -0.2119    2.8666    1.2385 C   0  0  0  0  0  0  0  0  0  0  0  0
   -0.5964    0.4337    1.6580 C   0  0  0  0  0  0  0  0  0  0  0  0
   -0.2962    2.6096    3.9014 O   0  0  0  0  0  0  0  0  0  0  0  0
   -0.4857    3.9874    3.5730 C   0  0  0  0  0  0  0  0  0  0  0  0
    1.3460    2.7669    6.1908 C   0  0  0  0  0  0  0  0  0  0  0  0
    2.4277    2.5917    7.2585 C   0  0  0  0  0  0  0  0  0  0  0  0
    1.0620    4.2571    5.9922 C   0  0  0  0  0  0  0  0  0  0  0  0
    0.0661    2.0594    6.6405 C   0  0  0  0  0  0  0  0  0  0  0  0
    9.3352    0.0981   -0.0705 H   0  0  0  0  0  0  0  0  0  0  0  0
    9.3505    0.4927    1.6652 H   0  0  0  0  0  0  0  0  0  0  0  0
   10.5515   -0.6397    0.9994 H   0  0  0  0  0  0  0  0  0  0  0  0
    6.6950   -1.0957    0.2786 H   0  0  0  0  0  0  0  0  0  0  0  0
    5.6062    1.0291    5.5355 H   0  0  0  0  0  0  0  0  0  0  0  0
    3.7700    1.7184    5.6387 H   0  0  0  0  0  0  0  0  0  0  0  0
    3.0187    0.6418    1.5594 H   0  0  0  0  0  0  0  0  0  0  0  0
    1.7471    0.1958    0.2862 H   0  0  0  0  0  0  0  0  0  0  0  0
    2.0210    1.9289   -0.0127 H   0  0  0  0  0  0  0  0  0  0  0  0
    0.5893    1.1231   -0.6977 H   0  0  0  0  0  0  0  0  0  0  0  0
   -0.4877    2.9992    0.1923 H   0  0  0  0  0  0  0  0  0  0  0  0
   -1.1072    2.9104    1.8587 H   0  0  0  0  0  0  0  0  0  0  0  0
    0.4755    3.6583    1.5362 H   0  0  0  0  0  0  0  0  0  0  0  0
   -0.1101   -0.5180    1.8721 H   0  0  0  0  0  0  0  0  0  0  0  0
   -1.2194    0.7220    2.5047 H   0  0  0  0  0  0  0  0  0  0  0  0
   -1.2173    0.3324    0.7679 H   0  0  0  0  0  0  0  0  0  0  0  0
   -1.0873    4.4657    4.3459 H   0  0  0  0  0  0  0  0  0  0  0  0
    0.4834    4.4822    3.5088 H   0  0  0  0  0  0  0  0  0  0  0  0
   -0.9977    4.0652    2.6139 H   0  0  0  0  0  0  0  0  0  0  0  0
    3.3395    3.0957    6.9380 H   0  0  0  0  0  0  0  0  0  0  0  0
    2.0843    3.0245    8.1981 H   0  0  0  0  0  0  0  0  0  0  0  0
    2.6300    1.5300    7.3999 H   0  0  0  0  0  0  0  0  0  0  0  0
    0.3899    4.3891    5.1443 H   0  0  0  0  0  0  0  0  0  0  0  0
    0.5966    4.6613    6.8912 H   0  0  0  0  0  0  0  0  0  0  0  0
    1.9973    4.7827    5.7996 H   0  0  0  0  0  0  0  0  0  0  0  0
    0.2779    1.0056    6.8214 H   0  0  0  0  0  0  0  0  0  0  0  0
   -0.2998    2.5192    7.5585 H   0  0  0  0  0  0  0  0  0  0  0  0
   -0.6915    2.1493    5.8620 H   0  0  0  0  0  0  0  0  0  0  0  0
   10.0126   -3.1281    0.0901 O   0  5  0  0  0  0  0  0  0  0  0  0
  1  2  1  0  0  0  0
  1 28  1  0  0  0  0
  1 29  1  0  0  0  0
  1 30  1  0  0  0  0
  2  3  1  0  0  0  0
  2  4  1  0  0  0  0
  2  6  1  0  0  0  0
  4  5  2  0  0  0  0
  4 56  1  0  0  0  0
  6  7  1  0  0  0  0
  6 31  1  0  0  0  0
  7 11  1  0  0  0  0
  7  8  2  0  0  0  0
  8  9  1  0  0  0  0
  9 10  2  0  0  0  0
  9 12  1  0  0  0  0
 10 11  1  0  0  0  0
 10 32  1  0  0  0  0
 12 17  2  0  0  0  0
 12 13  1  0  0  0  0
 13 14  2  0  0  0  0
 13 33  1  0  0  0  0
 14 15  1  0  0  0  0
 14 24  1  0  0  0  0
 15 16  2  0  0  0  0
 15 22  1  0  0  0  0
 16 17  1  0  0  0  0
 16 18  1  0  0  0  0
 17 34  1  0  0  0  0
 18 19  1  0  0  0  0
 18 20  1  0  0  0  0
 18 21  1  0  0  0  0
 19 35  1  0  0  0  0
 19 36  1  0  0  0  0
 19 37  1  0  0  0  0
 20 38  1  0  0  0  0
 20 39  1  0  0  0  0
 20 40  1  0  0  0  0
 21 41  1  0  0  0  0
 21 42  1  0  0  0  0
 21 43  1  0  0  0  0
 22 23  1  0  0  0  0
 23 44  1  0  0  0  0
 23 45  1  0  0  0  0
 23 46  1  0  0  0  0
 24 25  1  0  0  0  0
 24 26  1  0  0  0  0
 24 27  1  0  0  0  0
 25 47  1  0  0  0  0
 25 48  1  0  0  0  0
 25 49  1  0  0  0  0
 26 50  1  0  0  0  0
 26 51  1  0  0  0  0
 26 52  1  0  0  0  0
 27 53  1  0  0  0  0
 27 54  1  0  0  0  0
 27 55  1  0  0  0  0
M  CHG  1  56  -1
M  END
$$$$
ZINC03856894
  -OEChem-08230709463D

 53 54  0     0  0  0  0  0  0999 V2000
   -1.1114   -0.2998    2.0609 C   0  0  0  0  0  0  0  0  0  0  0  0
   -2.6344   -0.4457    2.0456 C   0  0  0  0  0  0  0  0  0  0  0  0
   -3.0896   -1.1754    3.3110 C   0  0  0  0  0  0  0  0  0  0  0  0
   -3.0575   -1.2485    0.8138 C   0  0  0  0  0  0  0  0  0  0  0  0
   -3.2693    0.9202    1.9975 C   0  0  0  0  0  0  0  0  0  0  0  0
   -2.4768    2.0490    2.0057 C   0  0  0  0  0  0  0  0  0  0  0  0
   -3.0649    3.3121    1.9616 C   0  0  0  0  0  0  0  0  0  0  0  0
   -4.4531    3.4300    1.9151 C   0  0  0  0  0  0  0  0  0  0  0  0
   -5.2399    2.2972    1.9018 C   0  0  0  0  0  0  0  0  0  0  0  0
   -4.6511    1.0409    1.9454 C   0  0  0  0  0  0  0  0  0  0  0  0
   -5.4294   -0.0733    1.9374 O   0  0  0  0  0  0  0  0  0  0  0  0
   -6.0886   -0.4130    3.1589 C   0  0  0  0  0  0  0  0  0  0  0  0
   -6.7405    2.4237    1.8463 C   0  0  0  0  0  0  0  0  0  0  0  0
   -7.1205    3.8857    1.6037 C   0  0  0  0  0  0  0  0  0  0  0  0
   -7.2833    1.5597    0.7061 C   0  0  0  0  0  0  0  0  0  0  0  0
   -7.3414    1.9539    3.1727 C   0  0  0  0  0  0  0  0  0  0  0  0
   -2.2156    4.5281    1.9703 C   0  0  0  0  0  0  0  0  0  0  0  0
   -2.7858    5.7683    1.9273 C   0  0  0  0  0  0  0  0  0  0  0  0
   -1.3308    6.8064    1.9677 S   0  0  0  0  0  0  0  0  0  0  0  0
   -0.1189    5.4942    2.0276 C   0  0  0  0  0  0  0  0  0  0  0  0
   -0.8896    4.4220    2.0196 N   0  0  0  0  0  0  0  0  0  0  0  0
    1.2631    5.5794    2.0759 N   0  0  0  0  0  0  0  0  0  0  0  0
    1.9168    6.8905    2.0691 C   0  0  0  0  0  0  0  0  0  0  0  0
    3.4116    6.7067    2.1209 C   0  0  0  0  0  0  0  0  0  0  0  0
    3.8826    5.5947    2.1594 O   0  0  0  0  0  0  0  0  0  0  0  0
   -0.8100    0.2721    2.9385 H   0  0  0  0  0  0  0  0  0  0  0  0
   -0.6521   -1.2877    2.0957 H   0  0  0  0  0  0  0  0  0  0  0  0
   -0.7871    0.2200    1.1595 H   0  0  0  0  0  0  0  0  0  0  0  0
   -3.9246   -1.8334    3.0704 H   0  0  0  0  0  0  0  0  0  0  0  0
   -2.2635   -1.7663    3.7067 H   0  0  0  0  0  0  0  0  0  0  0  0
   -3.4049   -0.4463    4.0574 H   0  0  0  0  0  0  0  0  0  0  0  0
   -2.7331   -0.7286   -0.0877 H   0  0  0  0  0  0  0  0  0  0  0  0
   -2.5982   -2.2364    0.8486 H   0  0  0  0  0  0  0  0  0  0  0  0
   -4.1424   -1.3523    0.8029 H   0  0  0  0  0  0  0  0  0  0  0  0
   -1.4017    1.9544    2.0459 H   0  0  0  0  0  0  0  0  0  0  0  0
   -4.9119    4.4073    1.8858 H   0  0  0  0  0  0  0  0  0  0  0  0
   -5.4008   -0.9615    3.8025 H   0  0  0  0  0  0  0  0  0  0  0  0
   -6.4103    0.4979    3.6636 H   0  0  0  0  0  0  0  0  0  0  0  0
   -6.9573   -1.0346    2.9422 H   0  0  0  0  0  0  0  0  0  0  0  0
   -6.6925    4.2204    0.6588 H   0  0  0  0  0  0  0  0  0  0  0  0
   -8.2059    3.9772    1.5635 H   0  0  0  0  0  0  0  0  0  0  0  0
   -6.7338    4.5012    2.4160 H   0  0  0  0  0  0  0  0  0  0  0  0
   -7.0126    0.5181    0.8790 H   0  0  0  0  0  0  0  0  0  0  0  0
   -8.3687    1.6512    0.6660 H   0  0  0  0  0  0  0  0  0  0  0  0
   -6.8553    1.8944   -0.2388 H   0  0  0  0  0  0  0  0  0  0  0  0
   -6.5841    2.0100    3.9547 H   0  0  0  0  0  0  0  0  0  0  0  0
   -8.1840    2.5930    3.4364 H   0  0  0  0  0  0  0  0  0  0  0  0
   -7.6840    0.9241    3.0718 H   0  0  0  0  0  0  0  0  0  0  0  0
   -3.8288    6.0457    1.8855 H   0  0  0  0  0  0  0  0  0  0  0  0
    1.7980    4.7710    2.1100 H   0  0  0  0  0  0  0  0  0  0  0  0
    1.6478    7.4259    1.1586 H   0  0  0  0  0  0  0  0  0  0  0  0
    1.5909    7.4634    2.9372 H   0  0  0  0  0  0  0  0  0  0  0  0
    4.2198    7.7784    2.1241 O   0  5  0  0  0  0  0  0  0  0  0  0
  1  2  1  0  0  0  0
  1 26  1  0  0  0  0
  1 27  1  0  0  0  0
  1 28  1  0  0  0  0
  2  3  1  0  0  0  0
  2  4  1  0  0  0  0
  2  5  1  0  0  0  0
  3 29  1  0  0  0  0
  3 30  1  0  0  0  0
  3 31  1  0  0  0  0
  4 32  1  0  0  0  0
  4 33  1  0  0  0  0
  4 34  1  0  0  0  0
  5 10  2  0  0  0  0
  5  6  1  0  0  0  0
  6  7  2  0  0  0  0
  6 35  1  0  0  0  0
  7  8  1  0  0  0  0
  7 17  1  0  0  0  0
  8  9  2  0  0  0  0
  8 36  1  0  0  0  0
  9 10  1  0  0  0  0
  9 13  1  0  0  0  0
 10 11  1  0  0  0  0
 11 12  1  0  0  0  0
 12 37  1  0  0  0  0
 12 38  1  0  0  0  0
 12 39  1  0  0  0  0
 13 14  1  0  0  0  0
 13 15  1  0  0  0  0
 13 16  1  0  0  0  0
 14 40  1  0  0  0  0
 14 41  1  0  0  0  0
 14 42  1  0  0  0  0
 15 43  1  0  0  0  0
 15 44  1  0  0  0  0
 15 45  1  0  0  0  0
 16 46  1  0  0  0  0
 16 47  1  0  0  0  0
 16 48  1  0  0  0  0
 17 21  1  0  0  0  0
 17 18  2  0  0  0  0
 18 19  1  0  0  0  0
 18 49  1  0  0  0  0
 19 20  1  0  0  0  0
 20 21  2  0  0  0  0
 20 22  1  0  0  0  0
 22 23  1  0  0  0  0
 22 50  1  0  0  0  0
 23 24  1  0  0  0  0
 23 51  1  0  0  0  0
 23 52  1  0  0  0  0
 24 25  2  0  0  0  0
 24 53  1  0  0  0  0
M  CHG  1  53  -1
M  END
$$$$
ZINC03856895
  -OEChem-08230709463D

 60 61  0     1  0  0  0  0  0999 V2000
   -0.7918    2.1516    0.5493 C   0  0  0  0  0  0  0  0  0  0  0  0
   -0.6110    0.6730    0.2001 C   0  0  1  0  0  0  0  0  0  0  0  0
   -0.3693    0.5766   -0.8584 H   0  0  0  0  0  0  0  0  0  0  0  0
    0.5264    0.0862    1.0384 C   0  0  1  0  0  0  0  0  0  0  0  0
    0.2847    0.1826    2.0969 H   0  0  0  0  0  0  0  0  0  0  0  0
    0.7044   -1.3701    0.6944 C   0  0  0  0  0  0  0  0  0  0  0  0
    1.7596   -1.7627    0.2558 O   0  0  0  0  0  0  0  0  0  0  0  0
    1.7674    0.8106    0.7530 N   0  0  0  0  0  0  0  0  0  0  0  0
    2.0542    1.9861    1.4279 C   0  0  0  0  0  0  0  0  0  0  0  0
    3.1079    2.7747    1.3206 N   0  0  0  0  0  0  0  0  0  0  0  0
    3.2170    3.8806    2.0534 C   0  0  0  0  0  0  0  0  0  0  0  0
    2.2264    4.1961    2.9390 C   0  0  0  0  0  0  0  0  0  0  0  0
    1.0999    2.8323    2.6797 S   0  0  0  0  0  0  0  0  0  0  0  0
    4.4051    4.7576    1.9142 C   0  0  0  0  0  0  0  0  0  0  0  0
    4.5136    5.9142    2.6848 C   0  0  0  0  0  0  0  0  0  0  0  0
    5.6220    6.7251    2.5564 C   0  0  0  0  0  0  0  0  0  0  0  0
    6.6237    6.3961    1.6536 C   0  0  0  0  0  0  0  0  0  0  0  0
    6.5161    5.2479    0.8811 C   0  0  0  0  0  0  0  0  0  0  0  0
    5.4128    4.4300    1.0085 C   0  0  0  0  0  0  0  0  0  0  0  0
    7.6058    4.8948   -0.0982 C   0  0  0  0  0  0  0  0  0  0  0  0
    7.2389    3.5989   -0.8240 C   0  0  0  0  0  0  0  0  0  0  0  0
    7.7603    6.0245   -1.1184 C   0  0  0  0  0  0  0  0  0  0  0  0
    8.9244    4.7026    0.6535 C   0  0  0  0  0  0  0  0  0  0  0  0
    7.7119    7.2003    1.5254 O   0  0  0  0  0  0  0  0  0  0  0  0
    8.8123    6.9472    2.4012 C   0  0  0  0  0  0  0  0  0  0  0  0
    5.7428    7.9727    3.3931 C   0  0  0  0  0  0  0  0  0  0  0  0
    4.4395    8.1994    4.1619 C   0  0  0  0  0  0  0  0  0  0  0  0
    6.8979    7.8126    4.3836 C   0  0  0  0  0  0  0  0  0  0  0  0
    6.0136    9.1726    2.4834 C   0  0  0  0  0  0  0  0  0  0  0  0
   -1.8215   -0.0336    0.4785 O   0  0  0  0  0  0  0  0  0  0  0  0
    0.1315    2.6906    0.3369 H   0  0  0  0  0  0  0  0  0  0  0  0
   -1.6021    2.5696   -0.0480 H   0  0  0  0  0  0  0  0  0  0  0  0
   -1.0335    2.2480    1.6078 H   0  0  0  0  0  0  0  0  0  0  0  0
    2.3882    0.4673    0.0914 H   0  0  0  0  0  0  0  0  0  0  0  0
    2.1460    5.0376    3.6112 H   0  0  0  0  0  0  0  0  0  0  0  0
    3.7326    6.1729    3.3844 H   0  0  0  0  0  0  0  0  0  0  0  0
    5.3299    3.5366    0.4074 H   0  0  0  0  0  0  0  0  0  0  0  0
    6.2994    3.7358   -1.3596 H   0  0  0  0  0  0  0  0  0  0  0  0
    8.0270    3.3435   -1.5323 H   0  0  0  0  0  0  0  0  0  0  0  0
    7.1288    2.7940   -0.0972 H   0  0  0  0  0  0  0  0  0  0  0  0
    8.1094    6.9251   -0.6132 H   0  0  0  0  0  0  0  0  0  0  0  0
    8.4839    5.7308   -1.8789 H   0  0  0  0  0  0  0  0  0  0  0  0
    6.7977    6.2224   -1.5900 H   0  0  0  0  0  0  0  0  0  0  0  0
    8.7231    4.2817    1.6386 H   0  0  0  0  0  0  0  0  0  0  0  0
    9.5667    4.0236    0.0927 H   0  0  0  0  0  0  0  0  0  0  0  0
    9.4229    5.6655    0.7648 H   0  0  0  0  0  0  0  0  0  0  0  0
    9.2427    5.9724    2.1716 H   0  0  0  0  0  0  0  0  0  0  0  0
    9.5694    7.7196    2.2659 H   0  0  0  0  0  0  0  0  0  0  0  0
    8.4642    6.9565    3.4341 H   0  0  0  0  0  0  0  0  0  0  0  0
    4.2465    7.3445    4.8100 H   0  0  0  0  0  0  0  0  0  0  0  0
    4.5269    9.1017    4.7670 H   0  0  0  0  0  0  0  0  0  0  0  0
    3.6166    8.3134    3.4562 H   0  0  0  0  0  0  0  0  0  0  0  0
    7.8345    8.0833    3.8963 H   0  0  0  0  0  0  0  0  0  0  0  0
    6.7334    8.4639    5.2420 H   0  0  0  0  0  0  0  0  0  0  0  0
    6.9486    6.7764    4.7182 H   0  0  0  0  0  0  0  0  0  0  0  0
    5.1598    9.3288    1.8241 H   0  0  0  0  0  0  0  0  0  0  0  0
    6.1696   10.0628    3.0929 H   0  0  0  0  0  0  0  0  0  0  0  0
    6.9045    8.9813    1.8851 H   0  0  0  0  0  0  0  0  0  0  0  0
   -2.0979    0.0092    1.4042 H   0  0  0  0  0  0  0  0  0  0  0  0
   -0.3093   -2.2312    0.8753 O   0  5  0  0  0  0  0  0  0  0  0  0
  1  2  1  0  0  0  0
  1 31  1  0  0  0  0
  1 32  1  0  0  0  0
  1 33  1  0  0  0  0
  2  3  1  0  0  0  0
  2  4  1  0  0  0  0
  2 30  1  0  0  0  0
  4  5  1  0  0  0  0
  4  6  1  0  0  0  0
  4  8  1  0  0  0  0
  6  7  2  0  0  0  0
  6 60  1  0  0  0  0
  8  9  1  0  0  0  0
  8 34  1  0  0  0  0
  9 13  1  0  0  0  0
  9 10  2  0  0  0  0
 10 11  1  0  0  0  0
 11 12  2  0  0  0  0
 11 14  1  0  0  0  0
 12 13  1  0  0  0  0
 12 35  1  0  0  0  0
 14 19  2  0  0  0  0
 14 15  1  0  0  0  0
 15 16  2  0  0  0  0
 15 36  1  0  0  0  0
 16 17  1  0  0  0  0
 16 26  1  0  0  0  0
 17 18  2  0  0  0  0
 17 24  1  0  0  0  0
 18 19  1  0  0  0  0
 18 20  1  0  0  0  0
 19 37  1  0  0  0  0
 20 21  1  0  0  0  0
 20 22  1  0  0  0  0
 20 23  1  0  0  0  0
 21 38  1  0  0  0  0
 21 39  1  0  0  0  0
 21 40  1  0  0  0  0
 22 41  1  0  0  0  0
 22 42  1  0  0  0  0
 22 43  1  0  0  0  0
 23 44  1  0  0  0  0
 23 45  1  0  0  0  0
 23 46  1  0  0  0  0
 24 25  1  0  0  0  0
 25 47  1  0  0  0  0
 25 48  1  0  0  0  0
 25 49  1  0  0  0  0
 26 27  1  0  0  0  0
 26 28  1  0  0  0  0
 26 29  1  0  0  0  0
 27 50  1  0  0  0  0
 27 51  1  0  0  0  0
 27 52  1  0  0  0  0
 28 53  1  0  0  0  0
 28 54  1  0  0  0  0
 28 55  1  0  0  0  0
 29 56  1  0  0  0  0
 29 57  1  0  0  0  0
 29 58  1  0  0  0  0
 30 59  1  0  0  0  0
M  CHG  1  60  -1
M  END
$$$$
ZINC03856896
  -OEChem-08230709463D

 60 61  0     1  0  0  0  0  0999 V2000
   -0.1334    3.6070    2.8324 C   0  0  0  0  0  0  0  0  0  0  0  0
    0.9789    2.6308    3.2207 C   0  0  2  0  0  0  0  0  0  0  0  0
    1.9214    3.1709    3.3104 H   0  0  0  0  0  0  0  0  0  0  0  0
    1.1098    1.5521    2.1436 C   0  0  1  0  0  0  0  0  0  0  0  0
    1.4396    2.0086    1.2104 H   0  0  0  0  0  0  0  0  0  0  0  0
    2.1188    0.5228    2.5834 C   0  0  0  0  0  0  0  0  0  0  0  0
    1.7870   -0.6318    2.7126 O   0  0  0  0  0  0  0  0  0  0  0  0
   -0.1892    0.9062    1.9389 N   0  0  0  0  0  0  0  0  0  0  0  0
   -0.4778    0.2993    0.7274 C   0  0  0  0  0  0  0  0  0  0  0  0
   -1.5740   -0.3332    0.3505 N   0  0  0  0  0  0  0  0  0  0  0  0
   -1.6812   -0.8574   -0.8683 C   0  0  0  0  0  0  0  0  0  0  0  0
   -0.6335   -0.7482   -1.7376 C   0  0  0  0  0  0  0  0  0  0  0  0
    0.5379    0.1583   -0.7364 S   0  0  0  0  0  0  0  0  0  0  0  0
   -2.9231   -1.5586   -1.2759 C   0  0  0  0  0  0  0  0  0  0  0  0
   -3.0291   -2.1057   -2.5536 C   0  0  0  0  0  0  0  0  0  0  0  0
   -4.1835   -2.7613   -2.9279 C   0  0  0  0  0  0  0  0  0  0  0  0
   -5.2430   -2.8673   -2.0375 C   0  0  0  0  0  0  0  0  0  0  0  0
   -5.1427   -2.3189   -0.7663 C   0  0  0  0  0  0  0  0  0  0  0  0
   -3.9890   -1.6667   -0.3840 C   0  0  0  0  0  0  0  0  0  0  0  0
   -6.2956   -2.4359    0.1971 C   0  0  0  0  0  0  0  0  0  0  0  0
   -5.9334   -1.7433    1.5124 C   0  0  0  0  0  0  0  0  0  0  0  0
   -7.5338   -1.7696   -0.4060 C   0  0  0  0  0  0  0  0  0  0  0  0
   -6.5901   -3.9135    0.4630 C   0  0  0  0  0  0  0  0  0  0  0  0
   -6.3814   -3.5090   -2.4113 O   0  0  0  0  0  0  0  0  0  0  0  0
   -6.4312   -4.9206   -2.1951 C   0  0  0  0  0  0  0  0  0  0  0  0
   -4.2968   -3.3581   -4.3071 C   0  0  0  0  0  0  0  0  0  0  0  0
   -3.0811   -2.9491   -5.1412 C   0  0  0  0  0  0  0  0  0  0  0  0
   -4.3518   -4.8833   -4.1998 C   0  0  0  0  0  0  0  0  0  0  0  0
   -5.5723   -2.8478   -4.9804 C   0  0  0  0  0  0  0  0  0  0  0  0
    0.6599    2.0184    4.4718 O   0  0  0  0  0  0  0  0  0  0  0  0
   -1.0759    3.0668    2.7427 H   0  0  0  0  0  0  0  0  0  0  0  0
   -0.2266    4.3754    3.5998 H   0  0  0  0  0  0  0  0  0  0  0  0
    0.1099    4.0741    1.8781 H   0  0  0  0  0  0  0  0  0  0  0  0
   -0.8471    0.9035    2.6517 H   0  0  0  0  0  0  0  0  0  0  0  0
   -0.5386   -1.1101   -2.7507 H   0  0  0  0  0  0  0  0  0  0  0  0
   -2.2066   -2.0200   -3.2483 H   0  0  0  0  0  0  0  0  0  0  0  0
   -3.9113   -1.2406    0.6053 H   0  0  0  0  0  0  0  0  0  0  0  0
   -5.7236   -0.6906    1.3230 H   0  0  0  0  0  0  0  0  0  0  0  0
   -6.7673   -1.8279    2.2092 H   0  0  0  0  0  0  0  0  0  0  0  0
   -5.0513   -2.2180    1.9421 H   0  0  0  0  0  0  0  0  0  0  0  0
   -7.8455   -2.3187   -1.2945 H   0  0  0  0  0  0  0  0  0  0  0  0
   -8.3416   -1.7739    0.3258 H   0  0  0  0  0  0  0  0  0  0  0  0
   -7.2964   -0.7414   -0.6791 H   0  0  0  0  0  0  0  0  0  0  0  0
   -5.6598   -4.4806    0.4327 H   0  0  0  0  0  0  0  0  0  0  0  0
   -7.0496   -4.0214    1.4456 H   0  0  0  0  0  0  0  0  0  0  0  0
   -7.2709   -4.2913   -0.2998 H   0  0  0  0  0  0  0  0  0  0  0  0
   -5.5686   -5.3911   -2.6670 H   0  0  0  0  0  0  0  0  0  0  0  0
   -6.4162   -5.1250   -1.1246 H   0  0  0  0  0  0  0  0  0  0  0  0
   -7.3468   -5.3225   -2.6290 H   0  0  0  0  0  0  0  0  0  0  0  0
   -2.1724   -3.3126   -4.6615 H   0  0  0  0  0  0  0  0  0  0  0  0
   -3.1630   -3.3807   -6.1387 H   0  0  0  0  0  0  0  0  0  0  0  0
   -3.0419   -1.8625   -5.2176 H   0  0  0  0  0  0  0  0  0  0  0  0
   -5.3784   -5.1974   -4.0109 H   0  0  0  0  0  0  0  0  0  0  0  0
   -4.0022   -5.3260   -5.1325 H   0  0  0  0  0  0  0  0  0  0  0  0
   -3.7142   -5.2132   -3.3796 H   0  0  0  0  0  0  0  0  0  0  0  0
   -5.5032   -1.7689   -5.1194 H   0  0  0  0  0  0  0  0  0  0  0  0
   -5.6902   -3.3322   -5.9497 H   0  0  0  0  0  0  0  0  0  0  0  0
   -6.4324   -3.0788   -4.3518 H   0  0  0  0  0  0  0  0  0  0  0  0
   -0.1684    1.5194    4.4656 H   0  0  0  0  0  0  0  0  0  0  0  0
    3.3875    0.8877    2.8262 O   0  5  0  0  0  0  0  0  0  0  0  0
  1  2  1  0  0  0  0
  1 31  1  0  0  0  0
  1 32  1  0  0  0  0
  1 33  1  0  0  0  0
  2  3  1  0  0  0  0
  2  4  1  0  0  0  0
  2 30  1  0  0  0  0
  4  5  1  0  0  0  0
  4  6  1  0  0  0  0
  4  8  1  0  0  0  0
  6  7  2  0  0  0  0
  6 60  1  0  0  0  0
  8  9  1  0  0  0  0
  8 34  1  0  0  0  0
  9 13  1  0  0  0  0
  9 10  2  0  0  0  0
 10 11  1  0  0  0  0
 11 12  2  0  0  0  0
 11 14  1  0  0  0  0
 12 13  1  0  0  0  0
 12 35  1  0  0  0  0
 14 19  2  0  0  0  0
 14 15  1  0  0  0  0
 15 16  2  0  0  0  0
 15 36  1  0  0  0  0
 16 17  1  0  0  0  0
 16 26  1  0  0  0  0
 17 18  2  0  0  0  0
 17 24  1  0  0  0  0
 18 19  1  0  0  0  0
 18 20  1  0  0  0  0
 19 37  1  0  0  0  0
 20 21  1  0  0  0  0
 20 22  1  0  0  0  0
 20 23  1  0  0  0  0
 21 38  1  0  0  0  0
 21 39  1  0  0  0  0
 21 40  1  0  0  0  0
 22 41  1  0  0  0  0
 22 42  1  0  0  0  0
 22 43  1  0  0  0  0
 23 44  1  0  0  0  0
 23 45  1  0  0  0  0
 23 46  1  0  0  0  0
 24 25  1  0  0  0  0
 25 47  1  0  0  0  0
 25 48  1  0  0  0  0
 25 49  1  0  0  0  0
 26 27  1  0  0  0  0
 26 28  1  0  0  0  0
 26 29  1  0  0  0  0
 27 50  1  0  0  0  0
 27 51  1  0  0  0  0
 27 52  1  0  0  0  0
 28 53  1  0  0  0  0
 28 54  1  0  0  0  0
 28 55  1  0  0  0  0
 29 56  1  0  0  0  0
 29 57  1  0  0  0  0
 29 58  1  0  0  0  0
 30 59  1  0  0  0  0
M  CHG  1  60  -1
M  END
$$$$
ZINC03856897
  -OEChem-08230709463D

 60 61  0     1  0  0  0  0  0999 V2000
    9.2819    0.8101    1.9620 C   0  0  0  0  0  0  0  0  0  0  0  0
    9.5203   -0.2937    0.9297 C   0  0  1  0  0  0  0  0  0  0  0  0
   10.5515   -0.6397    0.9994 H   0  0  0  0  0  0  0  0  0  0  0  0
    8.5708   -1.4617    1.2036 C   0  0  2  0  0  0  0  0  0  0  0  0
    8.7558   -1.8535    2.2038 H   0  0  0  0  0  0  0  0  0  0  0  0
    8.8056   -2.5490    0.1868 C   0  0  0  0  0  0  0  0  0  0  0  0
    7.9073   -2.8994   -0.5413 O   0  0  0  0  0  0  0  0  0  0  0  0
    7.1847   -0.9966    1.1100 N   0  0  0  0  0  0  0  0  0  0  0  0
    6.5734   -0.4153    2.2091 C   0  0  0  0  0  0  0  0  0  0  0  0
    5.3464    0.0576    2.3290 N   0  0  0  0  0  0  0  0  0  0  0  0
    4.9239    0.5922    3.4725 C   0  0  0  0  0  0  0  0  0  0  0  0
    5.7726    0.6415    4.5413 C   0  0  0  0  0  0  0  0  0  0  0  0
    7.2348   -0.1128    3.8416 S   0  0  0  0  0  0  0  0  0  0  0  0
    3.5436    1.1231    3.5866 C   0  0  0  0  0  0  0  0  0  0  0  0
    3.1050    1.6761    4.7887 C   0  0  0  0  0  0  0  0  0  0  0  0
    1.8208    2.1685    4.8917 C   0  0  0  0  0  0  0  0  0  0  0  0
    0.9670    2.1188    3.7983 C   0  0  0  0  0  0  0  0  0  0  0  0
    1.3990    1.5641    2.6014 C   0  0  0  0  0  0  0  0  0  0  0  0
    2.6820    1.0699    2.4920 C   0  0  0  0  0  0  0  0  0  0  0  0
    0.4671    1.5073    1.4185 C   0  0  0  0  0  0  0  0  0  0  0  0
    1.2634    1.1641    0.1579 C   0  0  0  0  0  0  0  0  0  0  0  0
   -0.2119    2.8666    1.2385 C   0  0  0  0  0  0  0  0  0  0  0  0
   -0.5964    0.4337    1.6580 C   0  0  0  0  0  0  0  0  0  0  0  0
   -0.2962    2.6096    3.9014 O   0  0  0  0  0  0  0  0  0  0  0  0
   -0.4857    3.9874    3.5730 C   0  0  0  0  0  0  0  0  0  0  0  0
    1.3460    2.7669    6.1908 C   0  0  0  0  0  0  0  0  0  0  0  0
    2.4277    2.5917    7.2585 C   0  0  0  0  0  0  0  0  0  0  0  0
    1.0620    4.2571    5.9922 C   0  0  0  0  0  0  0  0  0  0  0  0
    0.0661    2.0594    6.6405 C   0  0  0  0  0  0  0  0  0  0  0  0
    9.2777    0.2200   -0.3815 O   0  0  0  0  0  0  0  0  0  0  0  0
    9.4670    0.4183    2.9622 H   0  0  0  0  0  0  0  0  0  0  0  0
    9.9584    1.6423    1.7669 H   0  0  0  0  0  0  0  0  0  0  0  0
    8.2507    1.1562    1.8924 H   0  0  0  0  0  0  0  0  0  0  0  0
    6.6950   -1.0957    0.2786 H   0  0  0  0  0  0  0  0  0  0  0  0
    5.6062    1.0291    5.5355 H   0  0  0  0  0  0  0  0  0  0  0  0
    3.7700    1.7184    5.6387 H   0  0  0  0  0  0  0  0  0  0  0  0
    3.0187    0.6418    1.5594 H   0  0  0  0  0  0  0  0  0  0  0  0
    1.7471    0.1958    0.2862 H   0  0  0  0  0  0  0  0  0  0  0  0
    2.0210    1.9289   -0.0127 H   0  0  0  0  0  0  0  0  0  0  0  0
    0.5893    1.1231   -0.6977 H   0  0  0  0  0  0  0  0  0  0  0  0
   -0.4877    2.9992    0.1923 H   0  0  0  0  0  0  0  0  0  0  0  0
   -1.1072    2.9104    1.8587 H   0  0  0  0  0  0  0  0  0  0  0  0
    0.4755    3.6583    1.5362 H   0  0  0  0  0  0  0  0  0  0  0  0
   -0.1101   -0.5180    1.8721 H   0  0  0  0  0  0  0  0  0  0  0  0
   -1.2194    0.7220    2.5047 H   0  0  0  0  0  0  0  0  0  0  0  0
   -1.2173    0.3324    0.7679 H   0  0  0  0  0  0  0  0  0  0  0  0
   -1.0873    4.4657    4.3459 H   0  0  0  0  0  0  0  0  0  0  0  0
    0.4834    4.4822    3.5087 H   0  0  0  0  0  0  0  0  0  0  0  0
   -0.9977    4.0652    2.6139 H   0  0  0  0  0  0  0  0  0  0  0  0
    3.3395    3.0957    6.9380 H   0  0  0  0  0  0  0  0  0  0  0  0
    2.0843    3.0245    8.1981 H   0  0  0  0  0  0  0  0  0  0  0  0
    2.6300    1.5300    7.3999 H   0  0  0  0  0  0  0  0  0  0  0  0
    0.3899    4.3891    5.1443 H   0  0  0  0  0  0  0  0  0  0  0  0
    0.5966    4.6613    6.8912 H   0  0  0  0  0  0  0  0  0  0  0  0
    1.9973    4.7827    5.7996 H   0  0  0  0  0  0  0  0  0  0  0  0
    0.2779    1.0056    6.8214 H   0  0  0  0  0  0  0  0  0  0  0  0
   -0.2998    2.5192    7.5585 H   0  0  0  0  0  0  0  0  0  0  0  0
   -0.6915    2.1493    5.8620 H   0  0  0  0  0  0  0  0  0  0  0  0
    8.3775    0.5465   -0.5157 H   0  0  0  0  0  0  0  0  0  0  0  0
   10.0126   -3.1281    0.0901 O   0  5  0  0  0  0  0  0  0  0  0  0
  1  2  1  0  0  0  0
  1 31  1  0  0  0  0
  1 32  1  0  0  0  0
  1 33  1  0  0  0  0
  2  3  1  0  0  0  0
  2  4  1  0  0  0  0
  2 30  1  0  0  0  0
  4  5  1  0  0  0  0
  4  6  1  0  0  0  0
  4  8  1  0  0  0  0
  6  7  2  0  0  0  0
  6 60  1  0  0  0  0
  8  9  1  0  0  0  0
  8 34  1  0  0  0  0
  9 13  1  0  0  0  0
  9 10  2  0  0  0  0
 10 11  1  0  0  0  0
 11 12  2  0  0  0  0
 11 14  1  0  0  0  0
 12 13  1  0  0  0  0
 12 35  1  0  0  0  0
 14 19  2  0  0  0  0
 14 15  1  0  0  0  0
 15 16  2  0  0  0  0
 15 36  1  0  0  0  0
 16 17  1  0  0  0  0
 16 26  1  0  0  0  0
 17 18  2  0  0  0  0
 17 24  1  0  0  0  0
 18 19  1  0  0  0  0
 18 20  1  0  0  0  0
 19 37  1  0  0  0  0
 20 21  1  0  0  0  0
 20 22  1  0  0  0  0
 20 23  1  0  0  0  0
 21 38  1  0  0  0  0
 21 39  1  0  0  0  0
 21 40  1  0  0  0  0
 22 41  1  0  0  0  0
 22 42  1  0  0  0  0
 22 43  1  0  0  0  0
 23 44  1  0  0  0  0
 23 45  1  0  0  0  0
 23 46  1  0  0  0  0
 24 25  1  0  0  0  0
 25 47  1  0  0  0  0
 25 48  1  0  0  0  0
 25 49  1  0  0  0  0
 26 27  1  0  0  0  0
 26 28  1  0  0  0  0
 26 29  1  0  0  0  0
 27 50  1  0  0  0  0
 27 51  1  0  0  0  0
 27 52  1  0  0  0  0
 28 53  1  0  0  0  0
 28 54  1  0  0  0  0
 28 55  1  0  0  0  0
 29 56  1  0  0  0  0
 29 57  1  0  0  0  0
 29 58  1  0  0  0  0
 30 59  1  0  0  0  0
M  CHG  1  60  -1
M  END
$$$$
ZINC03856898
  -OEChem-08230709463D

 60 61  0     1  0  0  0  0  0999 V2000
    3.9717    8.1376    1.3803 C   0  0  0  0  0  0  0  0  0  0  0  0
    3.3337    6.7525    1.5038 C   0  0  2  0  0  0  0  0  0  0  0  0
    3.2899    6.2836    0.5208 H   0  0  0  0  0  0  0  0  0  0  0  0
    1.9176    6.8915    2.0662 C   0  0  2  0  0  0  0  0  0  0  0  0
    1.3455    7.5796    1.4438 H   0  0  0  0  0  0  0  0  0  0  0  0
    1.9862    7.4259    3.4736 C   0  0  0  0  0  0  0  0  0  0  0  0
    1.5353    6.7780    4.3884 O   0  0  0  0  0  0  0  0  0  0  0  0
    1.2640    5.5804    2.0729 N   0  0  0  0  0  0  0  0  0  0  0  0
   -0.1180    5.4952    2.0251 C   0  0  0  0  0  0  0  0  0  0  0  0
   -0.8885    4.4229    2.0118 N   0  0  0  0  0  0  0  0  0  0  0  0
   -2.2146    4.5291    1.9675 C   0  0  0  0  0  0  0  0  0  0  0  0
   -2.7849    5.7693    1.9241 C   0  0  0  0  0  0  0  0  0  0  0  0
   -1.3296    6.8073    1.9573 S   0  0  0  0  0  0  0  0  0  0  0  0
   -3.0640    3.3131    1.9599 C   0  0  0  0  0  0  0  0  0  0  0  0
   -4.4522    3.4310    1.9139 C   0  0  0  0  0  0  0  0  0  0  0  0
   -5.2390    2.2981    1.9016 C   0  0  0  0  0  0  0  0  0  0  0  0
   -4.6502    1.0419    1.9455 C   0  0  0  0  0  0  0  0  0  0  0  0
   -3.2684    0.9212    1.9970 C   0  0  0  0  0  0  0  0  0  0  0  0
   -2.4758    2.0500    2.0043 C   0  0  0  0  0  0  0  0  0  0  0  0
   -2.6334   -0.4447    2.0456 C   0  0  0  0  0  0  0  0  0  0  0  0
   -1.1104   -0.2988    2.0601 C   0  0  0  0  0  0  0  0  0  0  0  0
   -3.0880   -1.1737    3.3115 C   0  0  0  0  0  0  0  0  0  0  0  0
   -3.0571   -1.2481    0.8143 C   0  0  0  0  0  0  0  0  0  0  0  0
   -5.4285   -0.0724    1.9384 O   0  0  0  0  0  0  0  0  0  0  0  0
   -6.0871   -0.4114    3.1604 C   0  0  0  0  0  0  0  0  0  0  0  0
   -6.7397    2.4246    1.8467 C   0  0  0  0  0  0  0  0  0  0  0  0
   -7.1198    3.8865    1.6035 C   0  0  0  0  0  0  0  0  0  0  0  0
   -7.2830    1.5601    0.7072 C   0  0  0  0  0  0  0  0  0  0  0  0
   -7.3399    1.9555    3.1735 C   0  0  0  0  0  0  0  0  0  0  0  0
    4.1180    5.9436    2.3829 O   0  0  0  0  0  0  0  0  0  0  0  0
    4.0155    8.6065    2.3633 H   0  0  0  0  0  0  0  0  0  0  0  0
    4.9806    8.0386    0.9797 H   0  0  0  0  0  0  0  0  0  0  0  0
    3.3735    8.7546    0.7098 H   0  0  0  0  0  0  0  0  0  0  0  0
    1.7989    4.7720    2.1068 H   0  0  0  0  0  0  0  0  0  0  0  0
   -3.8278    6.0466    1.8815 H   0  0  0  0  0  0  0  0  0  0  0  0
   -4.9110    4.4082    1.8843 H   0  0  0  0  0  0  0  0  0  0  0  0
   -1.4007    1.9554    2.0441 H   0  0  0  0  0  0  0  0  0  0  0  0
   -0.8086    0.2735    2.9372 H   0  0  0  0  0  0  0  0  0  0  0  0
   -0.6512   -1.2867    2.0952 H   0  0  0  0  0  0  0  0  0  0  0  0
   -0.7866    0.2206    1.1582 H   0  0  0  0  0  0  0  0  0  0  0  0
   -3.9232   -1.8319    3.0717 H   0  0  0  0  0  0  0  0  0  0  0  0
   -2.2618   -1.7645    3.7071 H   0  0  0  0  0  0  0  0  0  0  0  0
   -3.4030   -0.4442    4.0577 H   0  0  0  0  0  0  0  0  0  0  0  0
   -2.7332   -0.7287   -0.0875 H   0  0  0  0  0  0  0  0  0  0  0  0
   -2.5978   -2.2360    0.8495 H   0  0  0  0  0  0  0  0  0  0  0  0
   -4.1421   -1.3520    0.8040 H   0  0  0  0  0  0  0  0  0  0  0  0
   -5.3991   -0.9596    3.8040 H   0  0  0  0  0  0  0  0  0  0  0  0
   -6.4086    0.4998    3.6648 H   0  0  0  0  0  0  0  0  0  0  0  0
   -6.9560   -1.0331    2.9445 H   0  0  0  0  0  0  0  0  0  0  0  0
   -6.6922    4.2207    0.6582 H   0  0  0  0  0  0  0  0  0  0  0  0
   -8.2052    3.9780    1.5638 H   0  0  0  0  0  0  0  0  0  0  0  0
   -6.7327    4.5024    2.4153 H   0  0  0  0  0  0  0  0  0  0  0  0
   -7.0122    0.5185    0.8804 H   0  0  0  0  0  0  0  0  0  0  0  0
   -8.3684    1.6515    0.6675 H   0  0  0  0  0  0  0  0  0  0  0  0
   -6.8554    1.8943   -0.2381 H   0  0  0  0  0  0  0  0  0  0  0  0
   -6.5823    2.0120    3.9552 H   0  0  0  0  0  0  0  0  0  0  0  0
   -8.1824    2.5947    3.4373 H   0  0  0  0  0  0  0  0  0  0  0  0
   -7.6826    0.9256    3.0734 H   0  0  0  0  0  0  0  0  0  0  0  0
    4.2001    6.3008    3.2777 H   0  0  0  0  0  0  0  0  0  0  0  0
    2.5482    8.6215    3.7109 O   0  5  0  0  0  0  0  0  0  0  0  0
  1  2  1  0  0  0  0
  1 31  1  0  0  0  0
  1 32  1  0  0  0  0
  1 33  1  0  0  0  0
  2  3  1  0  0  0  0
  2  4  1  0  0  0  0
  2 30  1  0  0  0  0
  4  5  1  0  0  0  0
  4  6  1  0  0  0  0
  4  8  1  0  0  0  0
  6  7  2  0  0  0  0
  6 60  1  0  0  0  0
  8  9  1  0  0  0  0
  8 34  1  0  0  0  0
  9 13  1  0  0  0  0
  9 10  2  0  0  0  0
 10 11  1  0  0  0  0
 11 12  2  0  0  0  0
 11 14  1  0  0  0  0
 12 13  1  0  0  0  0
 12 35  1  0  0  0  0
 14 19  2  0  0  0  0
 14 15  1  0  0  0  0
 15 16  2  0  0  0  0
 15 36  1  0  0  0  0
 16 17  1  0  0  0  0
 16 26  1  0  0  0  0
 17 18  2  0  0  0  0
 17 24  1  0  0  0  0
 18 19  1  0  0  0  0
 18 20  1  0  0  0  0
 19 37  1  0  0  0  0
 20 21  1  0  0  0  0
 20 22  1  0  0  0  0
 20 23  1  0  0  0  0
 21 38  1  0  0  0  0
 21 39  1  0  0  0  0
 21 40  1  0  0  0  0
 22 41  1  0  0  0  0
 22 42  1  0  0  0  0
 22 43  1  0  0  0  0
 23 44  1  0  0  0  0
 23 45  1  0  0  0  0
 23 46  1  0  0  0  0
 24 25  1  0  0  0  0
 25 47  1  0  0  0  0
 25 48  1  0  0  0  0
 25 49  1  0  0  0  0
 26 27  1  0  0  0  0
 26 28  1  0  0  0  0
 26 29  1  0  0  0  0
 27 50  1  0  0  0  0
 27 51  1  0  0  0  0
 27 52  1  0  0  0  0
 28 53  1  0  0  0  0
 28 54  1  0  0  0  0
 28 55  1  0  0  0  0
 29 56  1  0  0  0  0
 29 57  1  0  0  0  0
 29 58  1  0  0  0  0
 30 59  1  0  0  0  0
M  CHG  1  60  -1
M  END
$$$$
ZINC03856899
  -OEChem-08230709463D

 57 58  0     1  0  0  0  0  0999 V2000
    1.2634    1.1641    0.1579 C   0  0  0  0  0  0  0  0  0  0  0  0
    0.4671    1.5073    1.4185 C   0  0  0  0  0  0  0  0  0  0  0  0
   -0.2119    2.8666    1.2385 C   0  0  0  0  0  0  0  0  0  0  0  0
   -0.5964    0.4337    1.6580 C   0  0  0  0  0  0  0  0  0  0  0  0
    1.3990    1.5641    2.6014 C   0  0  0  0  0  0  0  0  0  0  0  0
    2.6820    1.0699    2.4920 C   0  0  0  0  0  0  0  0  0  0  0  0
    3.5436    1.1231    3.5866 C   0  0  0  0  0  0  0  0  0  0  0  0
    3.1050    1.6761    4.7887 C   0  0  0  0  0  0  0  0  0  0  0  0
    1.8208    2.1685    4.8917 C   0  0  0  0  0  0  0  0  0  0  0  0
    0.9670    2.1188    3.7983 C   0  0  0  0  0  0  0  0  0  0  0  0
   -0.2962    2.6096    3.9014 O   0  0  0  0  0  0  0  0  0  0  0  0
   -0.4857    3.9874    3.5730 C   0  0  0  0  0  0  0  0  0  0  0  0
    1.3460    2.7669    6.1908 C   0  0  0  0  0  0  0  0  0  0  0  0
    2.4277    2.5917    7.2585 C   0  0  0  0  0  0  0  0  0  0  0  0
    1.0620    4.2571    5.9922 C   0  0  0  0  0  0  0  0  0  0  0  0
    0.0661    2.0594    6.6405 C   0  0  0  0  0  0  0  0  0  0  0  0
    4.9239    0.5922    3.4725 C   0  0  0  0  0  0  0  0  0  0  0  0
    5.7726    0.6415    4.5413 C   0  0  0  0  0  0  0  0  0  0  0  0
    7.2348   -0.1128    3.8416 S   0  0  0  0  0  0  0  0  0  0  0  0
    6.5734   -0.4153    2.2091 C   0  0  0  0  0  0  0  0  0  0  0  0
    5.3464    0.0576    2.3290 N   0  0  0  0  0  0  0  0  0  0  0  0
    7.1847   -0.9966    1.1101 N   0  0  0  0  0  0  0  0  0  0  0  0
    8.5708   -1.4617    1.2036 C   0  0  1  0  0  0  0  0  0  0  0  0
    8.7558   -1.8535    2.2038 H   0  0  0  0  0  0  0  0  0  0  0  0
    8.8091   -2.5656    0.1713 C   0  0  0  0  0  0  0  0  0  0  0  0
    8.6804   -2.0231   -1.1444 O   0  0  0  0  0  0  0  0  0  0  0  0
    9.5060   -0.3112    0.9339 C   0  0  0  0  0  0  0  0  0  0  0  0
    9.0604    0.7847    0.6886 O   0  0  0  0  0  0  0  0  0  0  0  0
    1.7471    0.1958    0.2862 H   0  0  0  0  0  0  0  0  0  0  0  0
    2.0210    1.9289   -0.0127 H   0  0  0  0  0  0  0  0  0  0  0  0
    0.5893    1.1231   -0.6977 H   0  0  0  0  0  0  0  0  0  0  0  0
   -0.4877    2.9992    0.1923 H   0  0  0  0  0  0  0  0  0  0  0  0
   -1.1072    2.9104    1.8587 H   0  0  0  0  0  0  0  0  0  0  0  0
    0.4755    3.6583    1.5362 H   0  0  0  0  0  0  0  0  0  0  0  0
   -0.1101   -0.5180    1.8721 H   0  0  0  0  0  0  0  0  0  0  0  0
   -1.2194    0.7220    2.5047 H   0  0  0  0  0  0  0  0  0  0  0  0
   -1.2173    0.3324    0.7679 H   0  0  0  0  0  0  0  0  0  0  0  0
    3.0187    0.6418    1.5594 H   0  0  0  0  0  0  0  0  0  0  0  0
    3.7700    1.7185    5.6387 H   0  0  0  0  0  0  0  0  0  0  0  0
   -1.0873    4.4657    4.3459 H   0  0  0  0  0  0  0  0  0  0  0  0
    0.4834    4.4822    3.5087 H   0  0  0  0  0  0  0  0  0  0  0  0
   -0.9977    4.0652    2.6139 H   0  0  0  0  0  0  0  0  0  0  0  0
    3.3395    3.0957    6.9380 H   0  0  0  0  0  0  0  0  0  0  0  0
    2.0843    3.0245    8.1981 H   0  0  0  0  0  0  0  0  0  0  0  0
    2.6300    1.5300    7.3999 H   0  0  0  0  0  0  0  0  0  0  0  0
    0.3899    4.3891    5.1443 H   0  0  0  0  0  0  0  0  0  0  0  0
    0.5966    4.6613    6.8912 H   0  0  0  0  0  0  0  0  0  0  0  0
    1.9973    4.7827    5.7996 H   0  0  0  0  0  0  0  0  0  0  0  0
    0.2779    1.0056    6.8214 H   0  0  0  0  0  0  0  0  0  0  0  0
   -0.2999    2.5192    7.5585 H   0  0  0  0  0  0  0  0  0  0  0  0
   -0.6915    2.1493    5.8620 H   0  0  0  0  0  0  0  0  0  0  0  0
    5.6062    1.0291    5.5355 H   0  0  0  0  0  0  0  0  0  0  0  0
    6.6950   -1.0957    0.2786 H   0  0  0  0  0  0  0  0  0  0  0  0
    9.8120   -2.9729    0.2999 H   0  0  0  0  0  0  0  0  0  0  0  0
    8.0743   -3.3584    0.3110 H   0  0  0  0  0  0  0  0  0  0  0  0
    8.8191   -2.6684   -1.8512 H   0  0  0  0  0  0  0  0  0  0  0  0
   10.8340   -0.5041    0.9661 O   0  5  0  0  0  0  0  0  0  0  0  0
  1  2  1  0  0  0  0
  1 29  1  0  0  0  0
  1 30  1  0  0  0  0
  1 31  1  0  0  0  0
  2  3  1  0  0  0  0
  2  4  1  0  0  0  0
  2  5  1  0  0  0  0
  3 32  1  0  0  0  0
  3 33  1  0  0  0  0
  3 34  1  0  0  0  0
  4 35  1  0  0  0  0
  4 36  1  0  0  0  0
  4 37  1  0  0  0  0
  5 10  2  0  0  0  0
  5  6  1  0  0  0  0
  6  7  2  0  0  0  0
  6 38  1  0  0  0  0
  7  8  1  0  0  0  0
  7 17  1  0  0  0  0
  8  9  2  0  0  0  0
  8 39  1  0  0  0  0
  9 10  1  0  0  0  0
  9 13  1  0  0  0  0
 10 11  1  0  0  0  0
 11 12  1  0  0  0  0
 12 40  1  0  0  0  0
 12 41  1  0  0  0  0
 12 42  1  0  0  0  0
 13 14  1  0  0  0  0
 13 15  1  0  0  0  0
 13 16  1  0  0  0  0
 14 43  1  0  0  0  0
 14 44  1  0  0  0  0
 14 45  1  0  0  0  0
 15 46  1  0  0  0  0
 15 47  1  0  0  0  0
 15 48  1  0  0  0  0
 16 49  1  0  0  0  0
 16 50  1  0  0  0  0
 16 51  1  0  0  0  0
 17 21  1  0  0  0  0
 17 18  2  0  0  0  0
 18 19  1  0  0  0  0
 18 52  1  0  0  0  0
 19 20  1  0  0  0  0
 20 21  2  0  0  0  0
 20 22  1  0  0  0  0
 22 23  1  0  0  0  0
 22 53  1  0  0  0  0
 23 24  1  0  0  0  0
 23 25  1  0  0  0  0
 23 27  1  0  0  0  0
 25 26  1  0  0  0  0
 25 54  1  0  0  0  0
 25 55  1  0  0  0  0
 26 56  1  0  0  0  0
 27 28  2  0  0  0  0
 27 57  1  0  0  0  0
M  CHG  1  57  -1
M  END
$$$$
ZINC03856900
  -OEChem-08230709463D

 57 58  0     1  0  0  0  0  0999 V2000
   -2.1916    3.5431   -5.0569 C   0  0  0  0  0  0  0  0  0  0  0  0
   -1.7969    4.9019   -5.6390 C   0  0  0  0  0  0  0  0  0  0  0  0
   -2.8738    5.9344   -5.2994 C   0  0  0  0  0  0  0  0  0  0  0  0
   -1.6626    4.7861   -7.1587 C   0  0  0  0  0  0  0  0  0  0  0  0
   -0.4799    5.3373   -5.0500 C   0  0  0  0  0  0  0  0  0  0  0  0
    0.1688    4.5288   -4.1402 C   0  0  0  0  0  0  0  0  0  0  0  0
    1.3868    4.9325   -3.5955 C   0  0  0  0  0  0  0  0  0  0  0  0
    1.9426    6.1552   -3.9686 C   0  0  0  0  0  0  0  0  0  0  0  0
    1.2915    6.9568   -4.8829 C   0  0  0  0  0  0  0  0  0  0  0  0
    0.0788    6.5519   -5.4234 C   0  0  0  0  0  0  0  0  0  0  0  0
   -0.5632    7.3466   -6.3199 O   0  0  0  0  0  0  0  0  0  0  0  0
   -0.2195    7.1805   -7.6969 C   0  0  0  0  0  0  0  0  0  0  0  0
    1.8944    8.2763   -5.2910 C   0  0  0  0  0  0  0  0  0  0  0  0
    3.1223    8.5655   -4.4253 C   0  0  0  0  0  0  0  0  0  0  0  0
    2.3108    8.2134   -6.7619 C   0  0  0  0  0  0  0  0  0  0  0  0
    0.8622    9.3894   -5.1003 C   0  0  0  0  0  0  0  0  0  0  0  0
    2.0869    4.0657   -2.6165 C   0  0  0  0  0  0  0  0  0  0  0  0
    3.2805    4.4557   -2.0793 C   0  0  0  0  0  0  0  0  0  0  0  0
    3.6343    3.0680   -1.0090 S   0  0  0  0  0  0  0  0  0  0  0  0
    2.1685    2.1159   -1.3819 C   0  0  0  0  0  0  0  0  0  0  0  0
    1.5613    2.8969   -2.2566 N   0  0  0  0  0  0  0  0  0  0  0  0
    1.7761    0.8821   -0.8885 N   0  0  0  0  0  0  0  0  0  0  0  0
    2.6183    0.1804    0.0833 C   0  0  2  0  0  0  0  0  0  0  0  0
    3.6678    0.3719   -0.1402 H   0  0  0  0  0  0  0  0  0  0  0  0
    2.3458   -1.3230    0.0027 C   0  0  0  0  0  0  0  0  0  0  0  0
    1.0010   -1.5858    0.4084 O   0  0  0  0  0  0  0  0  0  0  0  0
    2.3020    0.6745    1.4714 C   0  0  0  0  0  0  0  0  0  0  0  0
    1.4595    1.5255    1.6324 O   0  0  0  0  0  0  0  0  0  0  0  0
   -2.2873    3.6256   -3.9743 H   0  0  0  0  0  0  0  0  0  0  0  0
   -3.1442    3.2281   -5.4829 H   0  0  0  0  0  0  0  0  0  0  0  0
   -1.4244    2.8075   -5.2989 H   0  0  0  0  0  0  0  0  0  0  0  0
   -2.6387    6.8792   -5.7895 H   0  0  0  0  0  0  0  0  0  0  0  0
   -3.8429    5.5762   -5.6466 H   0  0  0  0  0  0  0  0  0  0  0  0
   -2.9068    6.0833   -4.2201 H   0  0  0  0  0  0  0  0  0  0  0  0
   -0.6547    4.4560   -7.4103 H   0  0  0  0  0  0  0  0  0  0  0  0
   -2.3862    4.0621   -7.5333 H   0  0  0  0  0  0  0  0  0  0  0  0
   -1.8512    5.7578   -7.6152 H   0  0  0  0  0  0  0  0  0  0  0  0
   -0.2662    3.5837   -3.8504 H   0  0  0  0  0  0  0  0  0  0  0  0
    2.8841    6.4727   -3.5452 H   0  0  0  0  0  0  0  0  0  0  0  0
    0.8591    7.2824   -7.8171 H   0  0  0  0  0  0  0  0  0  0  0  0
   -0.5305    6.1910   -8.0322 H   0  0  0  0  0  0  0  0  0  0  0  0
   -0.7249    7.9412   -8.2919 H   0  0  0  0  0  0  0  0  0  0  0  0
    3.8576    7.7724   -4.5611 H   0  0  0  0  0  0  0  0  0  0  0  0
    3.5584    9.5198   -4.7205 H   0  0  0  0  0  0  0  0  0  0  0  0
    2.8256    8.6102   -3.3774 H   0  0  0  0  0  0  0  0  0  0  0  0
    1.4522    8.4434   -7.3928 H   0  0  0  0  0  0  0  0  0  0  0  0
    3.1024    8.9397   -6.9468 H   0  0  0  0  0  0  0  0  0  0  0  0
    2.6746    7.2125   -6.9941 H   0  0  0  0  0  0  0  0  0  0  0  0
    0.6170    9.4801   -4.0421 H   0  0  0  0  0  0  0  0  0  0  0  0
    1.2741   10.3324   -5.4600 H   0  0  0  0  0  0  0  0  0  0  0  0
   -0.0398    9.1488   -5.6630 H   0  0  0  0  0  0  0  0  0  0  0  0
    3.8531    5.3547   -2.2534 H   0  0  0  0  0  0  0  0  0  0  0  0
    0.9438    0.4830   -1.1866 H   0  0  0  0  0  0  0  0  0  0  0  0
    3.0340   -1.8528    0.6612 H   0  0  0  0  0  0  0  0  0  0  0  0
    2.4891   -1.6638   -1.0227 H   0  0  0  0  0  0  0  0  0  0  0  0
    0.7579   -2.5213    0.3821 H   0  0  0  0  0  0  0  0  0  0  0  0
    2.9562    0.1692    2.5290 O   0  5  0  0  0  0  0  0  0  0  0  0
  1  2  1  0  0  0  0
  1 29  1  0  0  0  0
  1 30  1  0  0  0  0
  1 31  1  0  0  0  0
  2  3  1  0  0  0  0
  2  4  1  0  0  0  0
  2  5  1  0  0  0  0
  3 32  1  0  0  0  0
  3 33  1  0  0  0  0
  3 34  1  0  0  0  0
  4 35  1  0  0  0  0
  4 36  1  0  0  0  0
  4 37  1  0  0  0  0
  5 10  2  0  0  0  0
  5  6  1  0  0  0  0
  6  7  2  0  0  0  0
  6 38  1  0  0  0  0
  7  8  1  0  0  0  0
  7 17  1  0  0  0  0
  8  9  2  0  0  0  0
  8 39  1  0  0  0  0
  9 10  1  0  0  0  0
  9 13  1  0  0  0  0
 10 11  1  0  0  0  0
 11 12  1  0  0  0  0
 12 40  1  0  0  0  0
 12 41  1  0  0  0  0
 12 42  1  0  0  0  0
 13 14  1  0  0  0  0
 13 15  1  0  0  0  0
 13 16  1  0  0  0  0
 14 43  1  0  0  0  0
 14 44  1  0  0  0  0
 14 45  1  0  0  0  0
 15 46  1  0  0  0  0
 15 47  1  0  0  0  0
 15 48  1  0  0  0  0
 16 49  1  0  0  0  0
 16 50  1  0  0  0  0
 16 51  1  0  0  0  0
 17 21  1  0  0  0  0
 17 18  2  0  0  0  0
 18 19  1  0  0  0  0
 18 52  1  0  0  0  0
 19 20  1  0  0  0  0
 20 21  2  0  0  0  0
 20 22  1  0  0  0  0
 22 23  1  0  0  0  0
 22 53  1  0  0  0  0
 23 24  1  0  0  0  0
 23 25  1  0  0  0  0
 23 27  1  0  0  0  0
 25 26  1  0  0  0  0
 25 54  1  0  0  0  0
 25 55  1  0  0  0  0
 26 56  1  0  0  0  0
 27 28  2  0  0  0  0
 27 57  1  0  0  0  0
M  CHG  1  57  -1
M  END
$$$$
ZINC03856901
  -OEChem-08230709463D

 59 60  0     1  0  0  0  0  0999 V2000
    5.9630   -1.7042   -3.1238 C   0  0  0  0  0  0  0  0  0  0  0  0
    4.5698   -1.0757   -3.0544 C   0  0  0  0  0  0  0  0  0  0  0  0
    4.1753   -0.9417   -1.6875 O   0  0  0  0  0  0  0  0  0  0  0  0
    2.9565   -0.3898   -1.4483 C   0  0  0  0  0  0  0  0  0  0  0  0
    1.8685   -1.2064   -1.1721 C   0  0  0  0  0  0  0  0  0  0  0  0
    0.6303   -0.6494   -0.9294 C   0  0  0  0  0  0  0  0  0  0  0  0
    0.4722    0.7353   -0.9612 C   0  0  0  0  0  0  0  0  0  0  0  0
    1.5656    1.5523   -1.2440 C   0  0  0  0  0  0  0  0  0  0  0  0
    2.8023    0.9893   -1.4811 C   0  0  0  0  0  0  0  0  0  0  0  0
    3.9859    1.8721   -1.7823 C   0  0  0  0  0  0  0  0  0  0  0  0
    3.6116    3.3329   -1.5236 C   0  0  0  0  0  0  0  0  0  0  0  0
    5.1580    1.4787   -0.8810 C   0  0  0  0  0  0  0  0  0  0  0  0
    4.3898    1.7011   -3.2481 C   0  0  0  0  0  0  0  0  0  0  0  0
   -0.8580    1.3376   -0.7005 C   0  0  0  0  0  0  0  0  0  0  0  0
   -1.0193    2.6934   -0.7303 C   0  0  0  0  0  0  0  0  0  0  0  0
   -2.7623    2.8306   -0.3569 S   0  0  0  0  0  0  0  0  0  0  0  0
   -3.0978    1.0822   -0.2001 C   0  0  0  0  0  0  0  0  0  0  0  0
   -1.9069    0.5623   -0.4348 N   0  0  0  0  0  0  0  0  0  0  0  0
   -4.2915    0.4418    0.0904 N   0  0  0  0  0  0  0  0  0  0  0  0
   -5.5074    1.2267    0.3179 C   0  0  1  0  0  0  0  0  0  0  0  0
   -5.2495    2.1584    0.8213 H   0  0  0  0  0  0  0  0  0  0  0  0
   -6.1714    1.5392   -1.0246 C   0  0  0  0  0  0  0  0  0  0  0  0
   -6.4608    0.4380    1.1783 C   0  0  0  0  0  0  0  0  0  0  0  0
   -6.1559   -0.6663    1.5620 O   0  0  0  0  0  0  0  0  0  0  0  0
    2.0404   -2.7032   -1.1380 C   0  0  0  0  0  0  0  0  0  0  0  0
    0.6870   -3.3659   -0.8732 C   0  0  0  0  0  0  0  0  0  0  0  0
    2.5894   -3.1843   -2.4826 C   0  0  0  0  0  0  0  0  0  0  0  0
    3.0190   -3.0789   -0.0236 C   0  0  0  0  0  0  0  0  0  0  0  0
    6.6757   -1.0665   -2.6008 H   0  0  0  0  0  0  0  0  0  0  0  0
    5.9419   -2.6874   -2.6537 H   0  0  0  0  0  0  0  0  0  0  0  0
    6.2639   -1.8064   -4.1665 H   0  0  0  0  0  0  0  0  0  0  0  0
    3.8571   -1.7134   -3.5774 H   0  0  0  0  0  0  0  0  0  0  0  0
    4.5908   -0.0925   -3.5245 H   0  0  0  0  0  0  0  0  0  0  0  0
   -0.2158   -1.2853   -0.7146 H   0  0  0  0  0  0  0  0  0  0  0  0
    1.4453    2.6252   -1.2741 H   0  0  0  0  0  0  0  0  0  0  0  0
    3.3239    3.4548   -0.4793 H   0  0  0  0  0  0  0  0  0  0  0  0
    4.4677    3.9714   -1.7414 H   0  0  0  0  0  0  0  0  0  0  0  0
    2.7766    3.6132   -2.1656 H   0  0  0  0  0  0  0  0  0  0  0  0
    5.4247    0.4380   -1.0653 H   0  0  0  0  0  0  0  0  0  0  0  0
    6.0142    2.1172   -1.0989 H   0  0  0  0  0  0  0  0  0  0  0  0
    4.8703    1.6005    0.1632 H   0  0  0  0  0  0  0  0  0  0  0  0
    3.5836    1.2089   -3.7920 H   0  0  0  0  0  0  0  0  0  0  0  0
    4.5812    2.6795   -3.6888 H   0  0  0  0  0  0  0  0  0  0  0  0
    5.2925    1.0929   -3.3076 H   0  0  0  0  0  0  0  0  0  0  0  0
   -0.2937    3.4691   -0.9259 H   0  0  0  0  0  0  0  0  0  0  0  0
   -4.3222   -0.5263    0.1431 H   0  0  0  0  0  0  0  0  0  0  0  0
   -6.4293    0.6075   -1.5280 H   0  0  0  0  0  0  0  0  0  0  0  0
   -7.0760    2.1232   -0.8553 H   0  0  0  0  0  0  0  0  0  0  0  0
   -5.4818    2.1096   -1.6469 H   0  0  0  0  0  0  0  0  0  0  0  0
   -0.0102   -3.0983   -1.6671 H   0  0  0  0  0  0  0  0  0  0  0  0
    0.8113   -4.4486   -0.8485 H   0  0  0  0  0  0  0  0  0  0  0  0
    0.2959   -3.0232    0.0848 H   0  0  0  0  0  0  0  0  0  0  0  0
    3.6694   -3.3123   -2.4092 H   0  0  0  0  0  0  0  0  0  0  0  0
    2.1276   -4.1364   -2.7439 H   0  0  0  0  0  0  0  0  0  0  0  0
    2.3625   -2.4469   -3.2525 H   0  0  0  0  0  0  0  0  0  0  0  0
    2.6278   -2.7361    0.9343 H   0  0  0  0  0  0  0  0  0  0  0  0
    3.1433   -4.1615    0.0011 H   0  0  0  0  0  0  0  0  0  0  0  0
    3.9832   -2.6067   -0.2122 H   0  0  0  0  0  0  0  0  0  0  0  0
   -7.6487    0.9625    1.5183 O   0  5  0  0  0  0  0  0  0  0  0  0
  1  2  1  0  0  0  0
  1 29  1  0  0  0  0
  1 30  1  0  0  0  0
  1 31  1  0  0  0  0
  2  3  1  0  0  0  0
  2 32  1  0  0  0  0
  2 33  1  0  0  0  0
  3  4  1  0  0  0  0
  4  9  2  0  0  0  0
  4  5  1  0  0  0  0
  5  6  2  0  0  0  0
  5 25  1  0  0  0  0
  6  7  1  0  0  0  0
  6 34  1  0  0  0  0
  7  8  2  0  0  0  0
  7 14  1  0  0  0  0
  8  9  1  0  0  0  0
  8 35  1  0  0  0  0
  9 10  1  0  0  0  0
 10 11  1  0  0  0  0
 10 12  1  0  0  0  0
 10 13  1  0  0  0  0
 11 36  1  0  0  0  0
 11 37  1  0  0  0  0
 11 38  1  0  0  0  0
 12 39  1  0  0  0  0
 12 40  1  0  0  0  0
 12 41  1  0  0  0  0
 13 42  1  0  0  0  0
 13 43  1  0  0  0  0
 13 44  1  0  0  0  0
 14 18  1  0  0  0  0
 14 15  2  0  0  0  0
 15 16  1  0  0  0  0
 15 45  1  0  0  0  0
 16 17  1  0  0  0  0
 17 18  2  0  0  0  0
 17 19  1  0  0  0  0
 19 20  1  0  0  0  0
 19 46  1  0  0  0  0
 20 21  1  0  0  0  0
 20 22  1  0  0  0  0
 20 23  1  0  0  0  0
 22 47  1  0  0  0  0
 22 48  1  0  0  0  0
 22 49  1  0  0  0  0
 23 24  2  0  0  0  0
 23 59  1  0  0  0  0
 25 26  1  0  0  0  0
 25 27  1  0  0  0  0
 25 28  1  0  0  0  0
 26 50  1  0  0  0  0
 26 51  1  0  0  0  0
 26 52  1  0  0  0  0
 27 53  1  0  0  0  0
 27 54  1  0  0  0  0
 27 55  1  0  0  0  0
 28 56  1  0  0  0  0
 28 57  1  0  0  0  0
 28 58  1  0  0  0  0
M  CHG  1  59  -1
M  END
$$$$
ZINC03856902
  -OEChem-08230709463D

 59 60  0     1  0  0  0  0  0999 V2000
   -2.3369   -0.4853    3.5191 C   0  0  0  0  0  0  0  0  0  0  0  0
   -1.0863    0.0525    2.8207 C   0  0  0  0  0  0  0  0  0  0  0  0
   -0.7067   -0.8390    1.7704 O   0  0  0  0  0  0  0  0  0  0  0  0
    0.6173   -0.9131    1.4724 C   0  0  0  0  0  0  0  0  0  0  0  0
    1.3931   -1.9293    2.0131 C   0  0  0  0  0  0  0  0  0  0  0  0
    2.7381   -2.0042    1.7168 C   0  0  0  0  0  0  0  0  0  0  0  0
    3.3171   -1.0611    0.8691 C   0  0  0  0  0  0  0  0  0  0  0  0
    2.5342   -0.0450    0.3235 C   0  0  0  0  0  0  0  0  0  0  0  0
    1.1897    0.0244    0.6237 C   0  0  0  0  0  0  0  0  0  0  0  0
    0.3427    1.1229    0.0348 C   0  0  0  0  0  0  0  0  0  0  0  0
    1.2170    2.0330   -0.8302 C   0  0  0  0  0  0  0  0  0  0  0  0
   -0.7624    0.5085   -0.8267 C   0  0  0  0  0  0  0  0  0  0  0  0
   -0.2865    1.9424    1.1632 C   0  0  0  0  0  0  0  0  0  0  0  0
    4.7631   -1.1390    0.5479 C   0  0  0  0  0  0  0  0  0  0  0  0
    5.5354   -2.1321    1.0793 C   0  0  0  0  0  0  0  0  0  0  0  0
    7.1267   -1.7344    0.3679 S   0  0  0  0  0  0  0  0  0  0  0  0
    6.6070   -0.2969   -0.5582 C   0  0  0  0  0  0  0  0  0  0  0  0
    5.3204   -0.2449   -0.2656 N   0  0  0  0  0  0  0  0  0  0  0  0
    7.3550    0.5387   -1.3716 N   0  0  0  0  0  0  0  0  0  0  0  0
    8.7858    0.2876   -1.5614 C   0  0  2  0  0  0  0  0  0  0  0  0
    8.9688   -0.7869   -1.5647 H   0  0  0  0  0  0  0  0  0  0  0  0
    9.5731    0.9355   -0.4207 C   0  0  0  0  0  0  0  0  0  0  0  0
    9.2292    0.8767   -2.8757 C   0  0  0  0  0  0  0  0  0  0  0  0
    8.4318    1.4478   -3.5814 O   0  0  0  0  0  0  0  0  0  0  0  0
    0.7664   -2.9481    2.9298 C   0  0  0  0  0  0  0  0  0  0  0  0
    1.7849   -4.0456    3.2447 C   0  0  0  0  0  0  0  0  0  0  0  0
    0.3329   -2.2666    4.2292 C   0  0  0  0  0  0  0  0  0  0  0  0
   -0.4547   -3.5664    2.2462 C   0  0  0  0  0  0  0  0  0  0  0  0
   -3.1502   -0.5642    2.7978 H   0  0  0  0  0  0  0  0  0  0  0  0
   -2.1248   -1.4695    3.9368 H   0  0  0  0  0  0  0  0  0  0  0  0
   -2.6264    0.1947    4.3202 H   0  0  0  0  0  0  0  0  0  0  0  0
   -0.2729    0.1315    3.5420 H   0  0  0  0  0  0  0  0  0  0  0  0
   -1.2983    1.0368    2.4030 H   0  0  0  0  0  0  0  0  0  0  0  0
    3.3420   -2.7928    2.1408 H   0  0  0  0  0  0  0  0  0  0  0  0
    2.9797    0.6870   -0.3339 H   0  0  0  0  0  0  0  0  0  0  0  0
    1.6653    1.4492   -1.6341 H   0  0  0  0  0  0  0  0  0  0  0  0
    0.6043    2.8275   -1.2562 H   0  0  0  0  0  0  0  0  0  0  0  0
    2.0043    2.4707   -0.2164 H   0  0  0  0  0  0  0  0  0  0  0  0
   -1.4349   -0.0722   -0.1953 H   0  0  0  0  0  0  0  0  0  0  0  0
   -1.3226    1.3028   -1.3200 H   0  0  0  0  0  0  0  0  0  0  0  0
   -0.3171   -0.1430   -1.5787 H   0  0  0  0  0  0  0  0  0  0  0  0
    0.1979    1.6929    2.1072 H   0  0  0  0  0  0  0  0  0  0  0  0
   -0.1557    3.0047    0.9573 H   0  0  0  0  0  0  0  0  0  0  0  0
   -1.3502    1.7134    1.2290 H   0  0  0  0  0  0  0  0  0  0  0  0
    5.2605   -2.9365    1.7455 H   0  0  0  0  0  0  0  0  0  0  0  0
    6.9314    1.2901   -1.8153 H   0  0  0  0  0  0  0  0  0  0  0  0
    9.3901    2.0100   -0.4173 H   0  0  0  0  0  0  0  0  0  0  0  0
    9.2524    0.5094    0.5300 H   0  0  0  0  0  0  0  0  0  0  0  0
   10.6376    0.7486   -0.5619 H   0  0  0  0  0  0  0  0  0  0  0  0
    2.6549   -3.6050    3.7317 H   0  0  0  0  0  0  0  0  0  0  0  0
    1.3317   -4.7825    3.9078 H   0  0  0  0  0  0  0  0  0  0  0  0
    2.0938   -4.5311    2.3190 H   0  0  0  0  0  0  0  0  0  0  0  0
   -0.1636   -1.3244    3.9972 H   0  0  0  0  0  0  0  0  0  0  0  0
   -0.3558   -2.9170    4.7684 H   0  0  0  0  0  0  0  0  0  0  0  0
    1.2092   -2.0728    4.8478 H   0  0  0  0  0  0  0  0  0  0  0  0
   -0.1474   -4.0431    1.3153 H   0  0  0  0  0  0  0  0  0  0  0  0
   -0.9019   -4.3107    2.9051 H   0  0  0  0  0  0  0  0  0  0  0  0
   -1.1847   -2.7861    2.0312 H   0  0  0  0  0  0  0  0  0  0  0  0
   10.5099    0.7671   -3.2624 O   0  5  0  0  0  0  0  0  0  0  0  0
  1  2  1  0  0  0  0
  1 29  1  0  0  0  0
  1 30  1  0  0  0  0
  1 31  1  0  0  0  0
  2  3  1  0  0  0  0
  2 32  1  0  0  0  0
  2 33  1  0  0  0  0
  3  4  1  0  0  0  0
  4  9  2  0  0  0  0
  4  5  1  0  0  0  0
  5  6  2  0  0  0  0
  5 25  1  0  0  0  0
  6  7  1  0  0  0  0
  6 34  1  0  0  0  0
  7  8  2  0  0  0  0
  7 14  1  0  0  0  0
  8  9  1  0  0  0  0
  8 35  1  0  0  0  0
  9 10  1  0  0  0  0
 10 11  1  0  0  0  0
 10 12  1  0  0  0  0
 10 13  1  0  0  0  0
 11 36  1  0  0  0  0
 11 37  1  0  0  0  0
 11 38  1  0  0  0  0
 12 39  1  0  0  0  0
 12 40  1  0  0  0  0
 12 41  1  0  0  0  0
 13 42  1  0  0  0  0
 13 43  1  0  0  0  0
 13 44  1  0  0  0  0
 14 18  1  0  0  0  0
 14 15  2  0  0  0  0
 15 16  1  0  0  0  0
 15 45  1  0  0  0  0
 16 17  1  0  0  0  0
 17 18  2  0  0  0  0
 17 19  1  0  0  0  0
 19 20  1  0  0  0  0
 19 46  1  0  0  0  0
 20 21  1  0  0  0  0
 20 22  1  0  0  0  0
 20 23  1  0  0  0  0
 22 47  1  0  0  0  0
 22 48  1  0  0  0  0
 22 49  1  0  0  0  0
 23 24  2  0  0  0  0
 23 59  1  0  0  0  0
 25 26  1  0  0  0  0
 25 27  1  0  0  0  0
 25 28  1  0  0  0  0
 26 50  1  0  0  0  0
 26 51  1  0  0  0  0
 26 52  1  0  0  0  0
 27 53  1  0  0  0  0
 27 54  1  0  0  0  0
 27 55  1  0  0  0  0
 28 56  1  0  0  0  0
 28 57  1  0  0  0  0
 28 58  1  0  0  0  0
M  CHG  1  59  -1
M  END
$$$$
ZINC03856903
  -OEChem-08230709463D

 56 57  0     0  0  0  0  0  0999 V2000
   -6.6148   -1.2829    3.1365 C   0  0  0  0  0  0  0  0  0  0  0  0
   -5.3801   -0.3807    3.0863 C   0  0  0  0  0  0  0  0  0  0  0  0
   -5.0274   -0.1314    1.7242 O   0  0  0  0  0  0  0  0  0  0  0  0
   -3.8803    0.5626    1.5009 C   0  0  0  0  0  0  0  0  0  0  0  0
   -2.7099   -0.1156    1.1899 C   0  0  0  0  0  0  0  0  0  0  0  0
   -1.5440    0.5858    0.9632 C   0  0  0  0  0  0  0  0  0  0  0  0
   -1.5422    1.9773    1.0462 C   0  0  0  0  0  0  0  0  0  0  0  0
   -2.7182    2.6551    1.3635 C   0  0  0  0  0  0  0  0  0  0  0  0
   -3.8817    1.9482    1.5848 C   0  0  0  0  0  0  0  0  0  0  0  0
   -5.1546    2.6805    1.9233 C   0  0  0  0  0  0  0  0  0  0  0  0
   -4.9472    4.1831    1.7231 C   0  0  0  0  0  0  0  0  0  0  0  0
   -6.2810    2.1948    1.0087 C   0  0  0  0  0  0  0  0  0  0  0  0
   -5.5280    2.4070    3.3816 C   0  0  0  0  0  0  0  0  0  0  0  0
   -0.2902    2.7347    0.8035 C   0  0  0  0  0  0  0  0  0  0  0  0
   -0.2820    4.0980    0.8835 C   0  0  0  0  0  0  0  0  0  0  0  0
    1.4333    4.4436    0.5163 S   0  0  0  0  0  0  0  0  0  0  0  0
    1.9601    2.7515    0.2857 C   0  0  0  0  0  0  0  0  0  0  0  0
    0.8370    2.0926    0.5051 N   0  0  0  0  0  0  0  0  0  0  0  0
    3.2160    2.2606   -0.0329 N   0  0  0  0  0  0  0  0  0  0  0  0
    4.3328    3.1855   -0.2412 C   0  0  0  0  0  0  0  0  0  0  0  0
    5.5759    2.4038   -0.5799 C   0  0  0  0  0  0  0  0  0  0  0  0
    5.5333    1.1979   -0.6410 O   0  0  0  0  0  0  0  0  0  0  0  0
   -2.7128   -1.6200    1.1003 C   0  0  0  0  0  0  0  0  0  0  0  0
   -1.2933   -2.1168    0.8190 C   0  0  0  0  0  0  0  0  0  0  0  0
   -3.2063   -2.2087    2.4234 C   0  0  0  0  0  0  0  0  0  0  0  0
   -3.6416   -2.0616   -0.0325 C   0  0  0  0  0  0  0  0  0  0  0  0
   -7.4452   -0.7907    2.6304 H   0  0  0  0  0  0  0  0  0  0  0  0
   -6.3949   -2.2277    2.6394 H   0  0  0  0  0  0  0  0  0  0  0  0
   -6.8838   -1.4731    4.1756 H   0  0  0  0  0  0  0  0  0  0  0  0
   -4.5496   -0.8729    3.5925 H   0  0  0  0  0  0  0  0  0  0  0  0
   -5.6000    0.5640    3.5835 H   0  0  0  0  0  0  0  0  0  0  0  0
   -0.6337    0.0575    0.7212 H   0  0  0  0  0  0  0  0  0  0  0  0
   -2.7191    3.7329    1.4327 H   0  0  0  0  0  0  0  0  0  0  0  0
   -4.6812    4.3779    0.6841 H   0  0  0  0  0  0  0  0  0  0  0  0
   -5.8679    4.7127    1.9679 H   0  0  0  0  0  0  0  0  0  0  0  0
   -4.1448    4.5291    2.3746 H   0  0  0  0  0  0  0  0  0  0  0  0
   -6.4287    1.1243    1.1514 H   0  0  0  0  0  0  0  0  0  0  0  0
   -7.2016    2.7245    1.2535 H   0  0  0  0  0  0  0  0  0  0  0  0
   -6.0150    2.3896   -0.0302 H   0  0  0  0  0  0  0  0  0  0  0  0
   -4.6781    1.9590    3.8964 H   0  0  0  0  0  0  0  0  0  0  0  0
   -5.7958    3.3440    3.8699 H   0  0  0  0  0  0  0  0  0  0  0  0
   -6.3761    1.7232    3.4174 H   0  0  0  0  0  0  0  0  0  0  0  0
   -1.0884    4.7794    1.1109 H   0  0  0  0  0  0  0  0  0  0  0  0
    3.3548    1.3047   -0.1219 H   0  0  0  0  0  0  0  0  0  0  0  0
    4.0951    3.8633   -1.0611 H   0  0  0  0  0  0  0  0  0  0  0  0
    4.5023    3.7613    0.6687 H   0  0  0  0  0  0  0  0  0  0  0  0
   -0.6316   -1.8022    1.6260 H   0  0  0  0  0  0  0  0  0  0  0  0
   -1.2954   -3.2049    0.7542 H   0  0  0  0  0  0  0  0  0  0  0  0
   -0.9417   -1.6974   -0.1236 H   0  0  0  0  0  0  0  0  0  0  0  0
   -4.2629   -2.4623    2.3366 H   0  0  0  0  0  0  0  0  0  0  0  0
   -2.6350   -3.1072    2.6569 H   0  0  0  0  0  0  0  0  0  0  0  0
   -3.0727   -1.4761    3.2194 H   0  0  0  0  0  0  0  0  0  0  0  0
   -3.2899   -1.6422   -0.9751 H   0  0  0  0  0  0  0  0  0  0  0  0
   -3.6437   -3.1497   -0.0973 H   0  0  0  0  0  0  0  0  0  0  0  0
   -4.6528   -1.7076    0.1679 H   0  0  0  0  0  0  0  0  0  0  0  0
    6.7305    3.0473   -0.8137 O   0  5  0  0  0  0  0  0  0  0  0  0
  1  2  1  0  0  0  0
  1 27  1  0  0  0  0
  1 28  1  0  0  0  0
  1 29  1  0  0  0  0
  2  3  1  0  0  0  0
  2 30  1  0  0  0  0
  2 31  1  0  0  0  0
  3  4  1  0  0  0  0
  4  9  2  0  0  0  0
  4  5  1  0  0  0  0
  5  6  2  0  0  0  0
  5 23  1  0  0  0  0
  6  7  1  0  0  0  0
  6 32  1  0  0  0  0
  7  8  2  0  0  0  0
  7 14  1  0  0  0  0
  8  9  1  0  0  0  0
  8 33  1  0  0  0  0
  9 10  1  0  0  0  0
 10 11  1  0  0  0  0
 10 12  1  0  0  0  0
 10 13  1  0  0  0  0
 11 34  1  0  0  0  0
 11 35  1  0  0  0  0
 11 36  1  0  0  0  0
 12 37  1  0  0  0  0
 12 38  1  0  0  0  0
 12 39  1  0  0  0  0
 13 40  1  0  0  0  0
 13 41  1  0  0  0  0
 13 42  1  0  0  0  0
 14 18  1  0  0  0  0
 14 15  2  0  0  0  0
 15 16  1  0  0  0  0
 15 43  1  0  0  0  0
 16 17  1  0  0  0  0
 17 18  2  0  0  0  0
 17 19  1  0  0  0  0
 19 20  1  0  0  0  0
 19 44  1  0  0  0  0
 20 21  1  0  0  0  0
 20 45  1  0  0  0  0
 20 46  1  0  0  0  0
 21 22  2  0  0  0  0
 21 56  1  0  0  0  0
 23 24  1  0  0  0  0
 23 25  1  0  0  0  0
 23 26  1  0  0  0  0
 24 47  1  0  0  0  0
 24 48  1  0  0  0  0
 24 49  1  0  0  0  0
 25 50  1  0  0  0  0
 25 51  1  0  0  0  0
 25 52  1  0  0  0  0
 26 53  1  0  0  0  0
 26 54  1  0  0  0  0
 26 55  1  0  0  0  0
M  CHG  1  56  -1
M  END
$$$$
ZINC03856912
  -OEChem-08230709463D

 54 56  0     1  0  0  0  0  0999 V2000
    2.0093   -0.2374    6.0326 C   0  0  0  0  0  0  0  0  0  0  0  0
    1.3136    0.2141    4.7743 C   0  0  0  0  0  0  0  0  0  0  0  0
    0.9400    1.5339    4.6274 C   0  0  0  0  0  0  0  0  0  0  0  0
    0.3044    1.9516    3.4665 C   0  0  0  0  0  0  0  0  0  0  0  0
    0.0332    1.0412    2.4541 C   0  0  0  0  0  0  0  0  0  0  0  0
    0.4041   -0.2796    2.5948 C   0  0  0  0  0  0  0  0  0  0  0  0
    1.0475   -0.7013    3.7575 C   0  0  0  0  0  0  0  0  0  0  0  0
    1.4474   -2.1213    3.9124 C   0  0  0  0  0  0  0  0  0  0  0  0
    1.0699   -3.0495    2.9845 C   0  0  0  0  0  0  0  0  0  0  0  0
    1.8122   -4.5255    3.6678 S   0  0  0  0  0  0  0  0  0  0  0  0
    2.5374   -3.7650    5.1134 C   0  0  0  0  0  0  0  0  0  0  0  0
    2.1733   -2.5050    4.9601 N   0  0  0  0  0  0  0  0  0  0  0  0
    3.2835   -4.3442    6.1270 N   0  0  0  0  0  0  0  0  0  0  0  0
    3.5718   -5.7802    6.0954 C   0  0  1  0  0  0  0  0  0  0  0  0
    3.7098   -6.1005    5.0626 H   0  0  0  0  0  0  0  0  0  0  0  0
    4.8477   -6.0619    6.8914 C   0  0  0  0  0  0  0  0  0  0  0  0
    6.0203   -5.4047    6.2101 C   0  0  0  0  0  0  0  0  0  0  0  0
    6.7440   -6.0980    5.2580 C   0  0  0  0  0  0  0  0  0  0  0  0
    7.8166   -5.4935    4.6296 C   0  0  0  0  0  0  0  0  0  0  0  0
    8.1719   -4.1993    4.9607 C   0  0  0  0  0  0  0  0  0  0  0  0
    7.4514   -3.5078    5.9166 C   0  0  0  0  0  0  0  0  0  0  0  0
    6.3756   -4.1105    6.5412 C   0  0  0  0  0  0  0  0  0  0  0  0
    2.4210   -6.5373    6.7065 C   0  0  0  0  0  0  0  0  0  0  0  0
    1.4587   -5.9387    7.1255 O   0  0  0  0  0  0  0  0  0  0  0  0
   -0.6619    1.4980    1.1973 C   0  0  0  0  0  0  0  0  0  0  0  0
    0.2422    1.2369   -0.0091 C   0  0  0  0  0  0  0  0  0  0  0  0
   -1.9719    0.7257    1.0296 C   0  0  0  0  0  0  0  0  0  0  0  0
   -0.0574    3.2537    3.3224 O   0  0  0  0  0  0  0  0  0  0  0  0
    0.2521    4.1364    4.4027 C   0  0  0  0  0  0  0  0  0  0  0  0
    3.0864   -0.2534    5.8665 H   0  0  0  0  0  0  0  0  0  0  0  0
    1.7770    0.4527    6.8438 H   0  0  0  0  0  0  0  0  0  0  0  0
    1.6675   -1.2379    6.2977 H   0  0  0  0  0  0  0  0  0  0  0  0
    1.1459    2.2437    5.4149 H   0  0  0  0  0  0  0  0  0  0  0  0
    0.1968   -0.9864    1.8050 H   0  0  0  0  0  0  0  0  0  0  0  0
    0.4848   -2.9258    2.0852 H   0  0  0  0  0  0  0  0  0  0  0  0
    3.6149   -3.7990    6.8576 H   0  0  0  0  0  0  0  0  0  0  0  0
    4.7425   -5.6618    7.8999 H   0  0  0  0  0  0  0  0  0  0  0  0
    5.0137   -7.1379    6.9429 H   0  0  0  0  0  0  0  0  0  0  0  0
    6.4691   -7.1107    5.0025 H   0  0  0  0  0  0  0  0  0  0  0  0
    8.3797   -6.0339    3.8831 H   0  0  0  0  0  0  0  0  0  0  0  0
    9.0127   -3.7286    4.4729 H   0  0  0  0  0  0  0  0  0  0  0  0
    7.7293   -2.4968    6.1755 H   0  0  0  0  0  0  0  0  0  0  0  0
    5.8129   -3.5703    7.2883 H   0  0  0  0  0  0  0  0  0  0  0  0
   -0.8753    2.5646    1.2674 H   0  0  0  0  0  0  0  0  0  0  0  0
    0.4556    0.1703   -0.0791 H   0  0  0  0  0  0  0  0  0  0  0  0
    1.1755    1.7871    0.1104 H   0  0  0  0  0  0  0  0  0  0  0  0
   -0.2605    1.5673   -0.9181 H   0  0  0  0  0  0  0  0  0  0  0  0
   -1.7585   -0.3409    0.9595 H   0  0  0  0  0  0  0  0  0  0  0  0
   -2.6160    0.9117    1.8890 H   0  0  0  0  0  0  0  0  0  0  0  0
   -2.4746    1.0561    0.1206 H   0  0  0  0  0  0  0  0  0  0  0  0
   -0.2478    3.7920    5.3080 H   0  0  0  0  0  0  0  0  0  0  0  0
    1.3299    4.1482    4.5649 H   0  0  0  0  0  0  0  0  0  0  0  0
   -0.0897    5.1424    4.1592 H   0  0  0  0  0  0  0  0  0  0  0  0
    2.4650   -7.8765    6.7854 O   0  5  0  0  0  0  0  0  0  0  0  0
  1  2  1  0  0  0  0
  1 30  1  0  0  0  0
  1 31  1  0  0  0  0
  1 32  1  0  0  0  0
  2  7  2  0  0  0  0
  2  3  1  0  0  0  0
  3  4  2  0  0  0  0
  3 33  1  0  0  0  0
  4  5  1  0  0  0  0
  4 28  1  0  0  0  0
  5  6  2  0  0  0  0
  5 25  1  0  0  0  0
  6  7  1  0  0  0  0
  6 34  1  0  0  0  0
  7  8  1  0  0  0  0
  8 12  1  0  0  0  0
  8  9  2  0  0  0  0
  9 10  1  0  0  0  0
  9 35  1  0  0  0  0
 10 11  1  0  0  0  0
 11 12  2  0  0  0  0
 11 13  1  0  0  0  0
 13 14  1  0  0  0  0
 13 36  1  0  0  0  0
 14 15  1  0  0  0  0
 14 16  1  0  0  0  0
 14 23  1  0  0  0  0
 16 17  1  0  0  0  0
 16 37  1  0  0  0  0
 16 38  1  0  0  0  0
 17 22  2  0  0  0  0
 17 18  1  0  0  0  0
 18 19  2  0  0  0  0
 18 39  1  0  0  0  0
 19 20  1  0  0  0  0
 19 40  1  0  0  0  0
 20 21  2  0  0  0  0
 20 41  1  0  0  0  0
 21 22  1  0  0  0  0
 21 42  1  0  0  0  0
 22 43  1  0  0  0  0
 23 24  2  0  0  0  0
 23 54  1  0  0  0  0
 25 26  1  0  0  0  0
 25 27  1  0  0  0  0
 25 44  1  0  0  0  0
 26 45  1  0  0  0  0
 26 46  1  0  0  0  0
 26 47  1  0  0  0  0
 27 48  1  0  0  0  0
 27 49  1  0  0  0  0
 27 50  1  0  0  0  0
 28 29  1  0  0  0  0
 29 51  1  0  0  0  0
 29 52  1  0  0  0  0
 29 53  1  0  0  0  0
M  CHG  1  54  -1
M  END
$$$$
ZINC03856913
  -OEChem-08230709463D

 54 56  0     1  0  0  0  0  0999 V2000
   -1.8891    5.7397   -4.8732 C   0  0  0  0  0  0  0  0  0  0  0  0
   -1.3594    6.4908   -6.0675 C   0  0  0  0  0  0  0  0  0  0  0  0
   -2.2347    7.0650   -6.9660 C   0  0  0  0  0  0  0  0  0  0  0  0
   -1.7477    7.7512   -8.0697 C   0  0  0  0  0  0  0  0  0  0  0  0
   -0.3789    7.8678   -8.2697 C   0  0  0  0  0  0  0  0  0  0  0  0
    0.5015    7.3013   -7.3720 C   0  0  0  0  0  0  0  0  0  0  0  0
    0.0154    6.6109   -6.2625 C   0  0  0  0  0  0  0  0  0  0  0  0
    0.9595    6.0005   -5.2948 C   0  0  0  0  0  0  0  0  0  0  0  0
    2.0069    5.2435   -5.7366 C   0  0  0  0  0  0  0  0  0  0  0  0
    2.7742    4.7973   -4.1846 S   0  0  0  0  0  0  0  0  0  0  0  0
    1.6262    5.6492   -3.1121 C   0  0  0  0  0  0  0  0  0  0  0  0
    0.7948    6.1851   -3.9869 N   0  0  0  0  0  0  0  0  0  0  0  0
    1.6150    5.7309   -1.7291 N   0  0  0  0  0  0  0  0  0  0  0  0
    2.6485    5.0484   -0.9466 C   0  0  2  0  0  0  0  0  0  0  0  0
    2.9177    4.1132   -1.4376 H   0  0  0  0  0  0  0  0  0  0  0  0
    2.1141    4.7526    0.4562 C   0  0  0  0  0  0  0  0  0  0  0  0
    0.9728    3.7729    0.3627 C   0  0  0  0  0  0  0  0  0  0  0  0
    1.2215    2.4144    0.4223 C   0  0  0  0  0  0  0  0  0  0  0  0
    0.1746    1.5157    0.3365 C   0  0  0  0  0  0  0  0  0  0  0  0
   -1.1203    1.9754    0.1859 C   0  0  0  0  0  0  0  0  0  0  0  0
   -1.3695    3.3341    0.1317 C   0  0  0  0  0  0  0  0  0  0  0  0
   -0.3227    4.2327    0.2179 C   0  0  0  0  0  0  0  0  0  0  0  0
    3.8660    5.9307   -0.8446 C   0  0  0  0  0  0  0  0  0  0  0  0
    3.8699    7.0180   -1.3715 O   0  0  0  0  0  0  0  0  0  0  0  0
    0.1456    8.6137   -9.4696 C   0  0  0  0  0  0  0  0  0  0  0  0
    1.0061    9.7895   -9.0029 C   0  0  0  0  0  0  0  0  0  0  0  0
    0.9923    7.6705  -10.3264 C   0  0  0  0  0  0  0  0  0  0  0  0
   -2.6127    8.3106   -8.9563 O   0  0  0  0  0  0  0  0  0  0  0  0
   -4.0077    8.1525   -8.6896 C   0  0  0  0  0  0  0  0  0  0  0  0
   -1.9243    6.4060   -4.0113 H   0  0  0  0  0  0  0  0  0  0  0  0
   -2.8924    5.3731   -5.0903 H   0  0  0  0  0  0  0  0  0  0  0  0
   -1.2338    4.8967   -4.6542 H   0  0  0  0  0  0  0  0  0  0  0  0
   -3.3001    6.9766   -6.8127 H   0  0  0  0  0  0  0  0  0  0  0  0
    1.5662    7.3920   -7.5284 H   0  0  0  0  0  0  0  0  0  0  0  0
    2.2946    4.9881   -6.7457 H   0  0  0  0  0  0  0  0  0  0  0  0
    0.9228    6.2399   -1.2789 H   0  0  0  0  0  0  0  0  0  0  0  0
    1.7625    5.6774    0.9135 H   0  0  0  0  0  0  0  0  0  0  0  0
    2.9104    4.3257    1.0658 H   0  0  0  0  0  0  0  0  0  0  0  0
    2.2337    2.0551    0.5354 H   0  0  0  0  0  0  0  0  0  0  0  0
    0.3689    0.4544    0.3827 H   0  0  0  0  0  0  0  0  0  0  0  0
   -1.9378    1.2732    0.1145 H   0  0  0  0  0  0  0  0  0  0  0  0
   -2.3817    3.6933    0.0181 H   0  0  0  0  0  0  0  0  0  0  0  0
   -0.5170    5.2941    0.1717 H   0  0  0  0  0  0  0  0  0  0  0  0
   -0.6914    8.9875  -10.0594 H   0  0  0  0  0  0  0  0  0  0  0  0
    1.8431    9.4157   -8.4131 H   0  0  0  0  0  0  0  0  0  0  0  0
    1.3855   10.3291   -9.8707 H   0  0  0  0  0  0  0  0  0  0  0  0
    0.4029   10.4615   -8.3925 H   0  0  0  0  0  0  0  0  0  0  0  0
    0.3793    6.8328  -10.6589 H   0  0  0  0  0  0  0  0  0  0  0  0
    1.3717    8.2100  -11.1942 H   0  0  0  0  0  0  0  0  0  0  0  0
    1.8293    7.2966   -9.7366 H   0  0  0  0  0  0  0  0  0  0  0  0
   -4.2462    8.6007   -7.7251 H   0  0  0  0  0  0  0  0  0  0  0  0
   -4.5853    8.6449   -9.4719 H   0  0  0  0  0  0  0  0  0  0  0  0
   -4.2556    7.0913   -8.6683 H   0  0  0  0  0  0  0  0  0  0  0  0
    4.9460    5.5086   -0.1685 O   0  5  0  0  0  0  0  0  0  0  0  0
  1  2  1  0  0  0  0
  1 30  1  0  0  0  0
  1 31  1  0  0  0  0
  1 32  1  0  0  0  0
  2  7  2  0  0  0  0
  2  3  1  0  0  0  0
  3  4  2  0  0  0  0
  3 33  1  0  0  0  0
  4  5  1  0  0  0  0
  4 28  1  0  0  0  0
  5  6  2  0  0  0  0
  5 25  1  0  0  0  0
  6  7  1  0  0  0  0
  6 34  1  0  0  0  0
  7  8  1  0  0  0  0
  8 12  1  0  0  0  0
  8  9  2  0  0  0  0
  9 10  1  0  0  0  0
  9 35  1  0  0  0  0
 10 11  1  0  0  0  0
 11 12  2  0  0  0  0
 11 13  1  0  0  0  0
 13 14  1  0  0  0  0
 13 36  1  0  0  0  0
 14 15  1  0  0  0  0
 14 16  1  0  0  0  0
 14 23  1  0  0  0  0
 16 17  1  0  0  0  0
 16 37  1  0  0  0  0
 16 38  1  0  0  0  0
 17 22  2  0  0  0  0
 17 18  1  0  0  0  0
 18 19  2  0  0  0  0
 18 39  1  0  0  0  0
 19 20  1  0  0  0  0
 19 40  1  0  0  0  0
 20 21  2  0  0  0  0
 20 41  1  0  0  0  0
 21 22  1  0  0  0  0
 21 42  1  0  0  0  0
 22 43  1  0  0  0  0
 23 24  2  0  0  0  0
 23 54  1  0  0  0  0
 25 26  1  0  0  0  0
 25 27  1  0  0  0  0
 25 44  1  0  0  0  0
 26 45  1  0  0  0  0
 26 46  1  0  0  0  0
 26 47  1  0  0  0  0
 27 48  1  0  0  0  0
 27 49  1  0  0  0  0
 27 50  1  0  0  0  0
 28 29  1  0  0  0  0
 29 51  1  0  0  0  0
 29 52  1  0  0  0  0
 29 53  1  0  0  0  0
M  CHG  1  54  -1
M  END
$$$$
ZINC03856914
  -OEChem-08230709463D

 53 54  0     1  0  0  0  0  0999 V2000
   -0.8797   -3.7326    0.5781 C   0  0  0  0  0  0  0  0  0  0  0  0
   -2.1777   -4.1049    1.2473 C   0  0  0  0  0  0  0  0  0  0  0  0
   -2.5422   -5.4308    1.3575 C   0  0  0  0  0  0  0  0  0  0  0  0
   -3.7369   -5.7746    1.9745 C   0  0  0  0  0  0  0  0  0  0  0  0
   -4.5690   -4.7860    2.4822 C   0  0  0  0  0  0  0  0  0  0  0  0
   -4.2077   -3.4590    2.3799 C   0  0  0  0  0  0  0  0  0  0  0  0
   -3.0108   -3.1101    1.7559 C   0  0  0  0  0  0  0  0  0  0  0  0
   -2.6219   -1.6834    1.6391 C   0  0  0  0  0  0  0  0  0  0  0  0
   -3.5167   -0.7598    1.1794 C   0  0  0  0  0  0  0  0  0  0  0  0
   -2.5282    0.7281    1.2528 S   0  0  0  0  0  0  0  0  0  0  0  0
   -1.0346   -0.0241    1.8833 C   0  0  0  0  0  0  0  0  0  0  0  0
   -1.3955   -1.2909    1.9762 N   0  0  0  0  0  0  0  0  0  0  0  0
    0.1817    0.5650    2.1883 N   0  0  0  0  0  0  0  0  0  0  0  0
    0.3652    2.0062    2.0001 C   0  0  1  0  0  0  0  0  0  0  0  0
   -0.5664    2.5240    2.2287 H   0  0  0  0  0  0  0  0  0  0  0  0
    1.4690    2.5061    2.9343 C   0  0  0  0  0  0  0  0  0  0  0  0
    1.0318    2.3155    4.3881 C   0  0  0  0  0  0  0  0  0  0  0  0
    2.1875    2.6837    5.3206 C   0  0  0  0  0  0  0  0  0  0  0  0
   -0.1682    3.2179    4.6822 C   0  0  0  0  0  0  0  0  0  0  0  0
    0.7546    2.2806    0.5704 C   0  0  0  0  0  0  0  0  0  0  0  0
    0.8673    1.3661   -0.2112 O   0  0  0  0  0  0  0  0  0  0  0  0
   -5.8651   -5.1638    3.1518 C   0  0  0  0  0  0  0  0  0  0  0  0
   -5.8567   -4.6641    4.5979 C   0  0  0  0  0  0  0  0  0  0  0  0
   -7.0335   -4.5251    2.3983 C   0  0  0  0  0  0  0  0  0  0  0  0
   -4.0933   -7.0818    2.0815 O   0  0  0  0  0  0  0  0  0  0  0  0
   -3.1909   -8.0469    1.5372 C   0  0  0  0  0  0  0  0  0  0  0  0
   -0.0742   -3.7505    1.3122 H   0  0  0  0  0  0  0  0  0  0  0  0
   -0.6629   -4.4464   -0.2167 H   0  0  0  0  0  0  0  0  0  0  0  0
   -0.9633   -2.7317    0.1547 H   0  0  0  0  0  0  0  0  0  0  0  0
   -1.8971   -6.2022    0.9636 H   0  0  0  0  0  0  0  0  0  0  0  0
   -4.8532   -2.6907    2.7793 H   0  0  0  0  0  0  0  0  0  0  0  0
   -4.5397   -0.8919    0.8592 H   0  0  0  0  0  0  0  0  0  0  0  0
    0.9118    0.0232    2.5263 H   0  0  0  0  0  0  0  0  0  0  0  0
    2.3827    1.9402    2.7525 H   0  0  0  0  0  0  0  0  0  0  0  0
    1.6531    3.5637    2.7459 H   0  0  0  0  0  0  0  0  0  0  0  0
    0.7519    1.2745    4.5498 H   0  0  0  0  0  0  0  0  0  0  0  0
    3.0694    2.1011    5.0539 H   0  0  0  0  0  0  0  0  0  0  0  0
    2.4102    3.7461    5.2212 H   0  0  0  0  0  0  0  0  0  0  0  0
    1.9064    2.4662    6.3510 H   0  0  0  0  0  0  0  0  0  0  0  0
   -0.9916    2.9556    4.0179 H   0  0  0  0  0  0  0  0  0  0  0  0
   -0.4796    3.0822    5.7179 H   0  0  0  0  0  0  0  0  0  0  0  0
    0.1117    4.2589    4.5205 H   0  0  0  0  0  0  0  0  0  0  0  0
   -5.9762   -6.2481    3.1427 H   0  0  0  0  0  0  0  0  0  0  0  0
   -6.7941   -4.9373    5.0822 H   0  0  0  0  0  0  0  0  0  0  0  0
   -5.0243   -5.1191    5.1347 H   0  0  0  0  0  0  0  0  0  0  0  0
   -5.7455   -3.5798    4.6070 H   0  0  0  0  0  0  0  0  0  0  0  0
   -7.0396   -4.8811    1.3681 H   0  0  0  0  0  0  0  0  0  0  0  0
   -7.9710   -4.7983    2.8826 H   0  0  0  0  0  0  0  0  0  0  0  0
   -6.9224   -3.4408    2.4074 H   0  0  0  0  0  0  0  0  0  0  0  0
   -3.0640   -7.8644    0.4701 H   0  0  0  0  0  0  0  0  0  0  0  0
   -2.2258   -7.9645    2.0372 H   0  0  0  0  0  0  0  0  0  0  0  0
   -3.5945   -9.0480    1.6891 H   0  0  0  0  0  0  0  0  0  0  0  0
    0.9763    3.5410    0.1652 O   0  5  0  0  0  0  0  0  0  0  0  0
  1  2  1  0  0  0  0
  1 27  1  0  0  0  0
  1 28  1  0  0  0  0
  1 29  1  0  0  0  0
  2  7  2  0  0  0  0
  2  3  1  0  0  0  0
  3  4  2  0  0  0  0
  3 30  1  0  0  0  0
  4  5  1  0  0  0  0
  4 25  1  0  0  0  0
  5  6  2  0  0  0  0
  5 22  1  0  0  0  0
  6  7  1  0  0  0  0
  6 31  1  0  0  0  0
  7  8  1  0  0  0  0
  8 12  1  0  0  0  0
  8  9  2  0  0  0  0
  9 10  1  0  0  0  0
  9 32  1  0  0  0  0
 10 11  1  0  0  0  0
 11 12  2  0  0  0  0
 11 13  1  0  0  0  0
 13 14  1  0  0  0  0
 13 33  1  0  0  0  0
 14 15  1  0  0  0  0
 14 16  1  0  0  0  0
 14 20  1  0  0  0  0
 16 17  1  0  0  0  0
 16 34  1  0  0  0  0
 16 35  1  0  0  0  0
 17 18  1  0  0  0  0
 17 19  1  0  0  0  0
 17 36  1  0  0  0  0
 18 37  1  0  0  0  0
 18 38  1  0  0  0  0
 18 39  1  0  0  0  0
 19 40  1  0  0  0  0
 19 41  1  0  0  0  0
 19 42  1  0  0  0  0
 20 21  2  0  0  0  0
 20 53  1  0  0  0  0
 22 23  1  0  0  0  0
 22 24  1  0  0  0  0
 22 43  1  0  0  0  0
 23 44  1  0  0  0  0
 23 45  1  0  0  0  0
 23 46  1  0  0  0  0
 24 47  1  0  0  0  0
 24 48  1  0  0  0  0
 24 49  1  0  0  0  0
 25 26  1  0  0  0  0
 26 50  1  0  0  0  0
 26 51  1  0  0  0  0
 26 52  1  0  0  0  0
M  CHG  1  53  -1
M  END
$$$$
ZINC03856915
  -OEChem-08230709463D

 51 52  0     1  0  0  0  0  0999 V2000
   -0.3573    2.4775   -1.0827 C   0  0  0  0  0  0  0  0  0  0  0  0
    0.2921    1.7603    0.1026 C   0  0  0  0  0  0  0  0  0  0  0  0
   -0.4964    1.9693    1.2759 O   0  0  0  0  0  0  0  0  0  0  0  0
   -0.0555    1.3949    2.4261 C   0  0  0  0  0  0  0  0  0  0  0  0
    1.1101    0.6408    2.4212 C   0  0  0  0  0  0  0  0  0  0  0  0
    1.5632    0.0613    3.5877 C   0  0  0  0  0  0  0  0  0  0  0  0
    0.8432    0.2240    4.7705 C   0  0  0  0  0  0  0  0  0  0  0  0
   -0.3297    0.9770    4.7709 C   0  0  0  0  0  0  0  0  0  0  0  0
   -0.7746    1.5587    3.6018 C   0  0  0  0  0  0  0  0  0  0  0  0
   -2.0429    2.3726    3.6013 C   0  0  0  0  0  0  0  0  0  0  0  0
   -3.2133    1.4934    4.0463 C   0  0  0  0  0  0  0  0  0  0  0  0
   -1.8937    3.5501    4.5667 C   0  0  0  0  0  0  0  0  0  0  0  0
    1.3246   -0.4025    6.0258 C   0  0  0  0  0  0  0  0  0  0  0  0
    0.7032   -0.1361    7.2124 C   0  0  0  0  0  0  0  0  0  0  0  0
    1.6786   -1.1326    8.3312 S   0  0  0  0  0  0  0  0  0  0  0  0
    2.8120   -1.7917    7.1167 C   0  0  0  0  0  0  0  0  0  0  0  0
    2.3703   -1.2259    6.0084 N   0  0  0  0  0  0  0  0  0  0  0  0
    3.8733   -2.6650    7.2918 N   0  0  0  0  0  0  0  0  0  0  0  0
    4.1889   -3.1756    8.6282 C   0  0  1  0  0  0  0  0  0  0  0  0
    3.2660   -3.3159    9.1909 H   0  0  0  0  0  0  0  0  0  0  0  0
    4.9187   -4.5145    8.5033 C   0  0  1  0  0  0  0  0  0  0  0  0
    5.0748   -4.9372    9.4958 H   0  0  0  0  0  0  0  0  0  0  0  0
    4.0763   -5.4783    7.6653 C   0  0  0  0  0  0  0  0  0  0  0  0
    6.1825   -4.3107    7.8682 O   0  0  0  0  0  0  0  0  0  0  0  0
    5.0708   -2.1880    9.3479 C   0  0  0  0  0  0  0  0  0  0  0  0
    5.4017   -1.1628    8.8007 O   0  0  0  0  0  0  0  0  0  0  0  0
    2.8316   -0.7524    3.5826 C   0  0  0  0  0  0  0  0  0  0  0  0
   -1.3596    2.0802   -1.2429 H   0  0  0  0  0  0  0  0  0  0  0  0
   -0.4190    3.5451   -0.8719 H   0  0  0  0  0  0  0  0  0  0  0  0
    0.2442    2.3180   -1.9776 H   0  0  0  0  0  0  0  0  0  0  0  0
    0.3538    0.6927   -0.1082 H   0  0  0  0  0  0  0  0  0  0  0  0
    1.2944    2.1576    0.2629 H   0  0  0  0  0  0  0  0  0  0  0  0
    1.6648    0.5112    1.5036 H   0  0  0  0  0  0  0  0  0  0  0  0
   -0.8899    1.1045    5.6854 H   0  0  0  0  0  0  0  0  0  0  0  0
   -2.2328    2.7488    2.5960 H   0  0  0  0  0  0  0  0  0  0  0  0
   -3.0234    1.1172    5.0516 H   0  0  0  0  0  0  0  0  0  0  0  0
   -4.1306    2.0820    4.0459 H   0  0  0  0  0  0  0  0  0  0  0  0
   -3.3196    0.6545    3.3585 H   0  0  0  0  0  0  0  0  0  0  0  0
   -1.0599    4.1765    4.2497 H   0  0  0  0  0  0  0  0  0  0  0  0
   -2.8111    4.1388    4.5663 H   0  0  0  0  0  0  0  0  0  0  0  0
   -1.7038    3.1740    5.5720 H   0  0  0  0  0  0  0  0  0  0  0  0
   -0.1447    0.5005    7.4180 H   0  0  0  0  0  0  0  0  0  0  0  0
    4.4073   -2.9383    6.5296 H   0  0  0  0  0  0  0  0  0  0  0  0
    4.5963   -6.4322    7.5763 H   0  0  0  0  0  0  0  0  0  0  0  0
    3.1123   -5.6337    8.1497 H   0  0  0  0  0  0  0  0  0  0  0  0
    3.9202   -5.0556    6.6727 H   0  0  0  0  0  0  0  0  0  0  0  0
    6.7011   -5.1191    7.7558 H   0  0  0  0  0  0  0  0  0  0  0  0
    2.5843   -1.8100    3.4904 H   0  0  0  0  0  0  0  0  0  0  0  0
    3.4539   -0.4500    2.7404 H   0  0  0  0  0  0  0  0  0  0  0  0
    3.3738   -0.5859    4.5134 H   0  0  0  0  0  0  0  0  0  0  0  0
    5.4887   -2.4472   10.5969 O   0  5  0  0  0  0  0  0  0  0  0  0
  1  2  1  0  0  0  0
  1 28  1  0  0  0  0
  1 29  1  0  0  0  0
  1 30  1  0  0  0  0
  2  3  1  0  0  0  0
  2 31  1  0  0  0  0
  2 32  1  0  0  0  0
  3  4  1  0  0  0  0
  4  9  2  0  0  0  0
  4  5  1  0  0  0  0
  5  6  2  0  0  0  0
  5 33  1  0  0  0  0
  6  7  1  0  0  0  0
  6 27  1  0  0  0  0
  7  8  2  0  0  0  0
  7 13  1  0  0  0  0
  8  9  1  0  0  0  0
  8 34  1  0  0  0  0
  9 10  1  0  0  0  0
 10 11  1  0  0  0  0
 10 12  1  0  0  0  0
 10 35  1  0  0  0  0
 11 36  1  0  0  0  0
 11 37  1  0  0  0  0
 11 38  1  0  0  0  0
 12 39  1  0  0  0  0
 12 40  1  0  0  0  0
 12 41  1  0  0  0  0
 13 17  1  0  0  0  0
 13 14  2  0  0  0  0
 14 15  1  0  0  0  0
 14 42  1  0  0  0  0
 15 16  1  0  0  0  0
 16 17  2  0  0  0  0
 16 18  1  0  0  0  0
 18 19  1  0  0  0  0
 18 43  1  0  0  0  0
 19 20  1  0  0  0  0
 19 21  1  0  0  0  0
 19 25  1  0  0  0  0
 21 22  1  0  0  0  0
 21 23  1  0  0  0  0
 21 24  1  0  0  0  0
 23 44  1  0  0  0  0
 23 45  1  0  0  0  0
 23 46  1  0  0  0  0
 24 47  1  0  0  0  0
 25 26  2  0  0  0  0
 25 51  1  0  0  0  0
 27 48  1  0  0  0  0
 27 49  1  0  0  0  0
 27 50  1  0  0  0  0
M  CHG  1  51  -1
M  END
$$$$
ZINC03856916
  -OEChem-08230709463D

 51 52  0     1  0  0  0  0  0999 V2000
  -10.5849   -5.2893    2.9351 C   0  0  0  0  0  0  0  0  0  0  0  0
   -9.3927   -4.4504    2.4706 C   0  0  0  0  0  0  0  0  0  0  0  0
   -8.5009   -4.2416    3.5675 O   0  0  0  0  0  0  0  0  0  0  0  0
   -7.3822   -3.5097    3.3225 C   0  0  0  0  0  0  0  0  0  0  0  0
   -7.1498   -3.0043    2.0506 C   0  0  0  0  0  0  0  0  0  0  0  0
   -6.0181   -2.2572    1.8000 C   0  0  0  0  0  0  0  0  0  0  0  0
   -5.1014   -2.0187    2.8230 C   0  0  0  0  0  0  0  0  0  0  0  0
   -5.3375   -2.5275    4.0989 C   0  0  0  0  0  0  0  0  0  0  0  0
   -6.4742   -3.2696    4.3444 C   0  0  0  0  0  0  0  0  0  0  0  0
   -6.7306   -3.8198    5.7238 C   0  0  0  0  0  0  0  0  0  0  0  0
   -5.5858   -4.7538    6.1212 C   0  0  0  0  0  0  0  0  0  0  0  0
   -6.8185   -2.6661    6.7248 C   0  0  0  0  0  0  0  0  0  0  0  0
   -3.8805   -1.2199    2.5557 C   0  0  0  0  0  0  0  0  0  0  0  0
   -3.5192   -0.2085    3.3994 C   0  0  0  0  0  0  0  0  0  0  0  0
   -2.0230    0.3677    2.6082 S   0  0  0  0  0  0  0  0  0  0  0  0
   -2.0352   -0.7806    1.2388 C   0  0  0  0  0  0  0  0  0  0  0  0
   -3.1253   -1.4816    1.4912 N   0  0  0  0  0  0  0  0  0  0  0  0
   -1.1356   -0.9060    0.1926 N   0  0  0  0  0  0  0  0  0  0  0  0
    0.0197   -0.0091    0.1085 C   0  0  2  0  0  0  0  0  0  0  0  0
   -0.2598    0.9788    0.4745 H   0  0  0  0  0  0  0  0  0  0  0  0
    0.4778    0.0973   -1.3475 C   0  0  1  0  0  0  0  0  0  0  0  0
   -0.3607    0.4090   -1.9703 H   0  0  0  0  0  0  0  0  0  0  0  0
    1.6031    1.1284   -1.4540 C   0  0  0  0  0  0  0  0  0  0  0  0
    0.9537   -1.1749   -1.7913 O   0  0  0  0  0  0  0  0  0  0  0  0
    1.1435   -0.5571    0.9498 C   0  0  0  0  0  0  0  0  0  0  0  0
    0.9946   -1.5908    1.5574 O   0  0  0  0  0  0  0  0  0  0  0  0
   -5.7695   -1.7040    0.4204 C   0  0  0  0  0  0  0  0  0  0  0  0
  -10.2302   -6.2520    3.3033 H   0  0  0  0  0  0  0  0  0  0  0  0
  -11.1086   -4.7651    3.7344 H   0  0  0  0  0  0  0  0  0  0  0  0
  -11.2651   -5.4486    2.0984 H   0  0  0  0  0  0  0  0  0  0  0  0
   -9.7473   -3.4877    2.1023 H   0  0  0  0  0  0  0  0  0  0  0  0
   -8.8689   -4.9746    1.6712 H   0  0  0  0  0  0  0  0  0  0  0  0
   -7.8581   -3.1931    1.2574 H   0  0  0  0  0  0  0  0  0  0  0  0
   -4.6316   -2.3407    4.8946 H   0  0  0  0  0  0  0  0  0  0  0  0
   -7.6691   -4.3743    5.7251 H   0  0  0  0  0  0  0  0  0  0  0  0
   -4.6474   -4.1993    6.1198 H   0  0  0  0  0  0  0  0  0  0  0  0
   -5.7713   -5.1517    7.1189 H   0  0  0  0  0  0  0  0  0  0  0  0
   -5.5232   -5.5757    5.4080 H   0  0  0  0  0  0  0  0  0  0  0  0
   -7.6341   -2.0007    6.4417 H   0  0  0  0  0  0  0  0  0  0  0  0
   -7.0039   -3.0640    7.7225 H   0  0  0  0  0  0  0  0  0  0  0  0
   -5.8801   -2.1116    6.7234 H   0  0  0  0  0  0  0  0  0  0  0  0
   -4.0018    0.1432    4.2992 H   0  0  0  0  0  0  0  0  0  0  0  0
   -1.2707   -1.5876   -0.4841 H   0  0  0  0  0  0  0  0  0  0  0  0
    2.4416    0.8167   -0.8312 H   0  0  0  0  0  0  0  0  0  0  0  0
    1.9295    1.2042   -2.4913 H   0  0  0  0  0  0  0  0  0  0  0  0
    1.2401    2.0988   -1.1155 H   0  0  0  0  0  0  0  0  0  0  0  0
    1.7015   -1.5149   -1.2810 H   0  0  0  0  0  0  0  0  0  0  0  0
   -5.1232   -2.3852   -0.1332 H   0  0  0  0  0  0  0  0  0  0  0  0
   -6.7188   -1.5967   -0.1045 H   0  0  0  0  0  0  0  0  0  0  0  0
   -5.2868   -0.7301    0.5009 H   0  0  0  0  0  0  0  0  0  0  0  0
    2.3117    0.1003    1.0198 O   0  5  0  0  0  0  0  0  0  0  0  0
  1  2  1  0  0  0  0
  1 28  1  0  0  0  0
  1 29  1  0  0  0  0
  1 30  1  0  0  0  0
  2  3  1  0  0  0  0
  2 31  1  0  0  0  0
  2 32  1  0  0  0  0
  3  4  1  0  0  0  0
  4  9  2  0  0  0  0
  4  5  1  0  0  0  0
  5  6  2  0  0  0  0
  5 33  1  0  0  0  0
  6  7  1  0  0  0  0
  6 27  1  0  0  0  0
  7  8  2  0  0  0  0
  7 13  1  0  0  0  0
  8  9  1  0  0  0  0
  8 34  1  0  0  0  0
  9 10  1  0  0  0  0
 10 11  1  0  0  0  0
 10 12  1  0  0  0  0
 10 35  1  0  0  0  0
 11 36  1  0  0  0  0
 11 37  1  0  0  0  0
 11 38  1  0  0  0  0
 12 39  1  0  0  0  0
 12 40  1  0  0  0  0
 12 41  1  0  0  0  0
 13 17  1  0  0  0  0
 13 14  2  0  0  0  0
 14 15  1  0  0  0  0
 14 42  1  0  0  0  0
 15 16  1  0  0  0  0
 16 17  2  0  0  0  0
 16 18  1  0  0  0  0
 18 19  1  0  0  0  0
 18 43  1  0  0  0  0
 19 20  1  0  0  0  0
 19 21  1  0  0  0  0
 19 25  1  0  0  0  0
 21 22  1  0  0  0  0
 21 23  1  0  0  0  0
 21 24  1  0  0  0  0
 23 44  1  0  0  0  0
 23 45  1  0  0  0  0
 23 46  1  0  0  0  0
 24 47  1  0  0  0  0
 25 26  2  0  0  0  0
 25 51  1  0  0  0  0
 27 48  1  0  0  0  0
 27 49  1  0  0  0  0
 27 50  1  0  0  0  0
M  CHG  1  51  -1
M  END
$$$$
ZINC03856917
  -OEChem-08230709463D

 51 52  0     1  0  0  0  0  0999 V2000
   -0.3581    2.4775   -1.0824 C   0  0  0  0  0  0  0  0  0  0  0  0
    0.2914    1.7603    0.1028 C   0  0  0  0  0  0  0  0  0  0  0  0
   -0.4969    1.9693    1.2762 O   0  0  0  0  0  0  0  0  0  0  0  0
   -0.0558    1.3949    2.4263 C   0  0  0  0  0  0  0  0  0  0  0  0
    1.1099    0.6408    2.4211 C   0  0  0  0  0  0  0  0  0  0  0  0
    1.5632    0.0614    3.5876 C   0  0  0  0  0  0  0  0  0  0  0  0
    0.8431    0.2236    4.7704 C   0  0  0  0  0  0  0  0  0  0  0  0
   -0.3298    0.9765    4.7710 C   0  0  0  0  0  0  0  0  0  0  0  0
   -0.7746    1.5586    3.6021 C   0  0  0  0  0  0  0  0  0  0  0  0
   -2.0427    2.3729    3.6019 C   0  0  0  0  0  0  0  0  0  0  0  0
   -3.2133    1.4938    4.0469 C   0  0  0  0  0  0  0  0  0  0  0  0
   -1.8931    3.5501    4.5675 C   0  0  0  0  0  0  0  0  0  0  0  0
    1.3246   -0.4033    6.0256 C   0  0  0  0  0  0  0  0  0  0  0  0
    0.7030   -0.1373    7.2122 C   0  0  0  0  0  0  0  0  0  0  0  0
    1.6784   -1.1342    8.3308 S   0  0  0  0  0  0  0  0  0  0  0  0
    2.8120   -1.7927    7.1161 C   0  0  0  0  0  0  0  0  0  0  0  0
    2.3703   -1.2266    6.0079 N   0  0  0  0  0  0  0  0  0  0  0  0
    3.8729   -2.6665    7.2908 N   0  0  0  0  0  0  0  0  0  0  0  0
    4.1886   -3.1774    8.6271 C   0  0  1  0  0  0  0  0  0  0  0  0
    3.2657   -3.3174    9.1899 H   0  0  0  0  0  0  0  0  0  0  0  0
    4.9178   -4.5166    8.5019 C   0  0  2  0  0  0  0  0  0  0  0  0
    4.3172   -5.2029    7.9048 H   0  0  0  0  0  0  0  0  0  0  0  0
    5.1369   -5.1102    9.8949 C   0  0  0  0  0  0  0  0  0  0  0  0
    6.1816   -4.3133    7.8665 O   0  0  0  0  0  0  0  0  0  0  0  0
    5.0711   -2.1903    9.3467 C   0  0  0  0  0  0  0  0  0  0  0  0
    5.4023   -1.1652    8.7996 O   0  0  0  0  0  0  0  0  0  0  0  0
    2.8319   -0.7518    3.5824 C   0  0  0  0  0  0  0  0  0  0  0  0
   -0.4199    3.5451   -0.8716 H   0  0  0  0  0  0  0  0  0  0  0  0
    0.2432    2.3180   -1.9775 H   0  0  0  0  0  0  0  0  0  0  0  0
   -1.3604    2.0801   -1.2425 H   0  0  0  0  0  0  0  0  0  0  0  0
    0.3532    0.6927   -0.1080 H   0  0  0  0  0  0  0  0  0  0  0  0
    1.2937    2.1576    0.2629 H   0  0  0  0  0  0  0  0  0  0  0  0
    1.6647    0.5116    1.5036 H   0  0  0  0  0  0  0  0  0  0  0  0
   -0.8900    1.1037    5.6856 H   0  0  0  0  0  0  0  0  0  0  0  0
   -2.2326    2.7493    2.5967 H   0  0  0  0  0  0  0  0  0  0  0  0
   -3.0234    1.1174    5.0520 H   0  0  0  0  0  0  0  0  0  0  0  0
   -4.1305    2.0828    4.0467 H   0  0  0  0  0  0  0  0  0  0  0  0
   -3.3199    0.6551    3.3589 H   0  0  0  0  0  0  0  0  0  0  0  0
   -1.0592    4.1764    4.2505 H   0  0  0  0  0  0  0  0  0  0  0  0
   -2.8103    4.1391    4.5674 H   0  0  0  0  0  0  0  0  0  0  0  0
   -1.7032    3.1737    5.5727 H   0  0  0  0  0  0  0  0  0  0  0  0
   -0.1451    0.4989    7.4179 H   0  0  0  0  0  0  0  0  0  0  0  0
    4.4066   -2.9400    6.5284 H   0  0  0  0  0  0  0  0  0  0  0  0
    4.1730   -5.2653   10.3795 H   0  0  0  0  0  0  0  0  0  0  0  0
    5.6564   -6.0643    9.8057 H   0  0  0  0  0  0  0  0  0  0  0  0
    5.7375   -4.4239   10.4919 H   0  0  0  0  0  0  0  0  0  0  0  0
    6.7694   -3.7119    8.3437 H   0  0  0  0  0  0  0  0  0  0  0  0
    2.5852   -1.8095    3.4900 H   0  0  0  0  0  0  0  0  0  0  0  0
    3.4542   -0.4490    2.7403 H   0  0  0  0  0  0  0  0  0  0  0  0
    3.3741   -0.5852    4.5132 H   0  0  0  0  0  0  0  0  0  0  0  0
    5.4891   -2.4499   10.5956 O   0  5  0  0  0  0  0  0  0  0  0  0
  1  2  1  0  0  0  0
  1 28  1  0  0  0  0
  1 29  1  0  0  0  0
  1 30  1  0  0  0  0
  2  3  1  0  0  0  0
  2 31  1  0  0  0  0
  2 32  1  0  0  0  0
  3  4  1  0  0  0  0
  4  9  2  0  0  0  0
  4  5  1  0  0  0  0
  5  6  2  0  0  0  0
  5 33  1  0  0  0  0
  6  7  1  0  0  0  0
  6 27  1  0  0  0  0
  7  8  2  0  0  0  0
  7 13  1  0  0  0  0
  8  9  1  0  0  0  0
  8 34  1  0  0  0  0
  9 10  1  0  0  0  0
 10 11  1  0  0  0  0
 10 12  1  0  0  0  0
 10 35  1  0  0  0  0
 11 36  1  0  0  0  0
 11 37  1  0  0  0  0
 11 38  1  0  0  0  0
 12 39  1  0  0  0  0
 12 40  1  0  0  0  0
 12 41  1  0  0  0  0
 13 17  1  0  0  0  0
 13 14  2  0  0  0  0
 14 15  1  0  0  0  0
 14 42  1  0  0  0  0
 15 16  1  0  0  0  0
 16 17  2  0  0  0  0
 16 18  1  0  0  0  0
 18 19  1  0  0  0  0
 18 43  1  0  0  0  0
 19 20  1  0  0  0  0
 19 21  1  0  0  0  0
 19 25  1  0  0  0  0
 21 22  1  0  0  0  0
 21 23  1  0  0  0  0
 21 24  1  0  0  0  0
 23 44  1  0  0  0  0
 23 45  1  0  0  0  0
 23 46  1  0  0  0  0
 24 47  1  0  0  0  0
 25 26  2  0  0  0  0
 25 51  1  0  0  0  0
 27 48  1  0  0  0  0
 27 49  1  0  0  0  0
 27 50  1  0  0  0  0
M  CHG  1  51  -1
M  END
$$$$
ZINC03856918
  -OEChem-08230709463D

 51 52  0     1  0  0  0  0  0999 V2000
    7.1094   -5.9058    7.8173 C   0  0  0  0  0  0  0  0  0  0  0  0
    6.1394   -5.1282    6.9254 C   0  0  0  0  0  0  0  0  0  0  0  0
    5.7244   -5.9565    5.8375 O   0  0  0  0  0  0  0  0  0  0  0  0
    4.8552   -5.4132    4.9449 C   0  0  0  0  0  0  0  0  0  0  0  0
    4.4120   -4.1087    5.1159 C   0  0  0  0  0  0  0  0  0  0  0  0
    3.5342   -3.5527    4.2091 C   0  0  0  0  0  0  0  0  0  0  0  0
    3.0832   -4.3059    3.1260 C   0  0  0  0  0  0  0  0  0  0  0  0
    3.5300   -5.6152    2.9573 C   0  0  0  0  0  0  0  0  0  0  0  0
    4.4122   -6.1638    3.8649 C   0  0  0  0  0  0  0  0  0  0  0  0
    4.8958   -7.5795    3.6832 C   0  0  0  0  0  0  0  0  0  0  0  0
    3.7001   -8.5338    3.7061 C   0  0  0  0  0  0  0  0  0  0  0  0
    5.6209   -7.7025    2.3416 C   0  0  0  0  0  0  0  0  0  0  0  0
    2.1345   -3.7129    2.1520 C   0  0  0  0  0  0  0  0  0  0  0  0
    2.3630   -3.8254    0.8103 C   0  0  0  0  0  0  0  0  0  0  0  0
    0.9453   -2.9546    0.1560 S   0  0  0  0  0  0  0  0  0  0  0  0
    0.1971   -2.5320    1.7231 C   0  0  0  0  0  0  0  0  0  0  0  0
    1.0545   -3.0611    2.5767 N   0  0  0  0  0  0  0  0  0  0  0  0
   -0.9703   -1.8298    1.9756 N   0  0  0  0  0  0  0  0  0  0  0  0
   -1.7747   -1.3214    0.8617 C   0  0  2  0  0  0  0  0  0  0  0  0
   -1.1168   -1.0152    0.0484 H   0  0  0  0  0  0  0  0  0  0  0  0
   -2.5965   -0.1199    1.3329 C   0  0  2  0  0  0  0  0  0  0  0  0
   -3.1950    0.2583    0.5041 H   0  0  0  0  0  0  0  0  0  0  0  0
   -1.6546    0.9805    1.8256 C   0  0  0  0  0  0  0  0  0  0  0  0
   -3.4590   -0.5213    2.3991 O   0  0  0  0  0  0  0  0  0  0  0  0
   -2.7025   -2.4053    0.3764 C   0  0  0  0  0  0  0  0  0  0  0  0
   -2.6927   -3.4910    0.9065 O   0  0  0  0  0  0  0  0  0  0  0  0
    3.0588   -2.1343    4.3917 C   0  0  0  0  0  0  0  0  0  0  0  0
    6.6125   -6.7945    8.2062 H   0  0  0  0  0  0  0  0  0  0  0  0
    7.9809   -6.2029    7.2338 H   0  0  0  0  0  0  0  0  0  0  0  0
    7.4260   -5.2740    8.6471 H   0  0  0  0  0  0  0  0  0  0  0  0
    6.6364   -4.2395    6.5365 H   0  0  0  0  0  0  0  0  0  0  0  0
    5.2680   -4.8311    7.5089 H   0  0  0  0  0  0  0  0  0  0  0  0
    4.7583   -3.5272    5.9575 H   0  0  0  0  0  0  0  0  0  0  0  0
    3.1862   -6.1996    2.1166 H   0  0  0  0  0  0  0  0  0  0  0  0
    5.5809   -7.8359    4.4913 H   0  0  0  0  0  0  0  0  0  0  0  0
    3.0151   -8.2774    2.8980 H   0  0  0  0  0  0  0  0  0  0  0  0
    4.0499   -9.5577    3.5747 H   0  0  0  0  0  0  0  0  0  0  0  0
    3.1836   -8.4462    4.6619 H   0  0  0  0  0  0  0  0  0  0  0  0
    6.4727   -7.0226    2.3253 H   0  0  0  0  0  0  0  0  0  0  0  0
    5.9707   -8.7264    2.2102 H   0  0  0  0  0  0  0  0  0  0  0  0
    4.9359   -7.4460    1.5335 H   0  0  0  0  0  0  0  0  0  0  0  0
    3.1765   -4.3071    0.2882 H   0  0  0  0  0  0  0  0  0  0  0  0
   -1.2549   -1.6748    2.8898 H   0  0  0  0  0  0  0  0  0  0  0  0
   -0.9967    1.2867    1.0123 H   0  0  0  0  0  0  0  0  0  0  0  0
   -2.2400    1.8365    2.1612 H   0  0  0  0  0  0  0  0  0  0  0  0
   -1.0560    0.6023    2.6543 H   0  0  0  0  0  0  0  0  0  0  0  0
   -4.0112    0.1918    2.7481 H   0  0  0  0  0  0  0  0  0  0  0  0
    2.1036   -2.1360    4.9166 H   0  0  0  0  0  0  0  0  0  0  0  0
    3.7926   -1.5774    4.9744 H   0  0  0  0  0  0  0  0  0  0  0  0
    2.9366   -1.6637    3.4162 H   0  0  0  0  0  0  0  0  0  0  0  0
   -3.5397   -2.1646   -0.6448 O   0  5  0  0  0  0  0  0  0  0  0  0
  1  2  1  0  0  0  0
  1 28  1  0  0  0  0
  1 29  1  0  0  0  0
  1 30  1  0  0  0  0
  2  3  1  0  0  0  0
  2 31  1  0  0  0  0
  2 32  1  0  0  0  0
  3  4  1  0  0  0  0
  4  9  2  0  0  0  0
  4  5  1  0  0  0  0
  5  6  2  0  0  0  0
  5 33  1  0  0  0  0
  6  7  1  0  0  0  0
  6 27  1  0  0  0  0
  7  8  2  0  0  0  0
  7 13  1  0  0  0  0
  8  9  1  0  0  0  0
  8 34  1  0  0  0  0
  9 10  1  0  0  0  0
 10 11  1  0  0  0  0
 10 12  1  0  0  0  0
 10 35  1  0  0  0  0
 11 36  1  0  0  0  0
 11 37  1  0  0  0  0
 11 38  1  0  0  0  0
 12 39  1  0  0  0  0
 12 40  1  0  0  0  0
 12 41  1  0  0  0  0
 13 17  1  0  0  0  0
 13 14  2  0  0  0  0
 14 15  1  0  0  0  0
 14 42  1  0  0  0  0
 15 16  1  0  0  0  0
 16 17  2  0  0  0  0
 16 18  1  0  0  0  0
 18 19  1  0  0  0  0
 18 43  1  0  0  0  0
 19 20  1  0  0  0  0
 19 21  1  0  0  0  0
 19 25  1  0  0  0  0
 21 22  1  0  0  0  0
 21 23  1  0  0  0  0
 21 24  1  0  0  0  0
 23 44  1  0  0  0  0
 23 45  1  0  0  0  0
 23 46  1  0  0  0  0
 24 47  1  0  0  0  0
 25 26  2  0  0  0  0
 25 51  1  0  0  0  0
 27 48  1  0  0  0  0
 27 49  1  0  0  0  0
 27 50  1  0  0  0  0
M  CHG  1  51  -1
M  END
$$$$
ZINC03856952
  -OEChem-08230709463D

 48 50  0     1  0  0  0  0  0999 V2000
   -4.8091   -0.0354    0.0615 C   0  0  0  0  0  0  0  0  0  0  0  0
   -3.5656   -0.9266    0.0463 C   0  0  0  0  0  0  0  0  0  0  0  0
   -2.3938   -0.1090    0.0248 O   0  0  0  0  0  0  0  0  0  0  0  0
   -1.1958   -0.7487    0.0093 C   0  0  0  0  0  0  0  0  0  0  0  0
   -1.1491   -2.1242    0.0151 C   0  0  0  0  0  0  0  0  0  0  0  0
    0.0705   -2.7986    0.0003 C   0  0  0  0  0  0  0  0  0  0  0  0
    1.2681   -2.0952   -0.0216 C   0  0  0  0  0  0  0  0  0  0  0  0
    1.2457   -0.6810   -0.0279 C   0  0  0  0  0  0  0  0  0  0  0  0
    0.0019   -0.0041   -0.0123 C   0  0  0  0  0  0  0  0  0  0  0  0
   -0.0173    1.4003   -0.0190 C   0  0  0  0  0  0  0  0  0  0  0  0
    1.1561    2.0907   -0.0405 C   0  0  0  0  0  0  0  0  0  0  0  0
    2.3793    1.4240   -0.0559 C   0  0  0  0  0  0  0  0  0  0  0  0
    2.4349    0.0632   -0.0499 C   0  0  0  0  0  0  0  0  0  0  0  0
    2.5589   -2.8207   -0.0381 C   0  0  0  0  0  0  0  0  0  0  0  0
    2.7986   -3.8254    0.8575 C   0  0  0  0  0  0  0  0  0  0  0  0
    4.4512   -4.3118    0.3793 S   0  0  0  0  0  0  0  0  0  0  0  0
    4.6554   -3.1389   -0.9535 C   0  0  0  0  0  0  0  0  0  0  0  0
    3.4969   -2.5055   -0.9291 N   0  0  0  0  0  0  0  0  0  0  0  0
    5.7401   -2.9483   -1.7940 N   0  0  0  0  0  0  0  0  0  0  0  0
    6.9368   -3.7802   -1.6455 C   0  0  1  0  0  0  0  0  0  0  0  0
    7.0945   -4.0049   -0.5907 H   0  0  0  0  0  0  0  0  0  0  0  0
    6.7505   -5.0850   -2.4226 C   0  0  0  0  0  0  0  0  0  0  0  0
    8.1332   -3.0402   -2.1859 C   0  0  0  0  0  0  0  0  0  0  0  0
    7.9999   -1.9316   -2.6476 O   0  0  0  0  0  0  0  0  0  0  0  0
    0.0881   -4.1572    0.0069 O   0  0  0  0  0  0  0  0  0  0  0  0
   -1.1764   -4.8223    0.0291 C   0  0  0  0  0  0  0  0  0  0  0  0
   -0.9563   -6.3364    0.0334 C   0  0  0  0  0  0  0  0  0  0  0  0
   -5.7029   -0.6591    0.0779 H   0  0  0  0  0  0  0  0  0  0  0  0
   -4.7916    0.5978    0.9485 H   0  0  0  0  0  0  0  0  0  0  0  0
   -4.8188    0.5900   -0.8312 H   0  0  0  0  0  0  0  0  0  0  0  0
   -3.5831   -1.5598   -0.8407 H   0  0  0  0  0  0  0  0  0  0  0  0
   -3.5559   -1.5520    0.9390 H   0  0  0  0  0  0  0  0  0  0  0  0
   -2.0698   -2.6884    0.0316 H   0  0  0  0  0  0  0  0  0  0  0  0
   -0.9585    1.9300   -0.0116 H   0  0  0  0  0  0  0  0  0  0  0  0
    1.1383    3.1705   -0.0459 H   0  0  0  0  0  0  0  0  0  0  0  0
    3.2962    1.9943   -0.0732 H   0  0  0  0  0  0  0  0  0  0  0  0
    3.3901   -0.4408   -0.0625 H   0  0  0  0  0  0  0  0  0  0  0  0
    2.1645   -4.2171    1.6390 H   0  0  0  0  0  0  0  0  0  0  0  0
    5.7072   -2.2641   -2.4808 H   0  0  0  0  0  0  0  0  0  0  0  0
    5.8852   -5.6203   -2.0317 H   0  0  0  0  0  0  0  0  0  0  0  0
    6.5928   -4.8603   -3.4774 H   0  0  0  0  0  0  0  0  0  0  0  0
    7.6409   -5.7040   -2.3121 H   0  0  0  0  0  0  0  0  0  0  0  0
   -1.7239   -4.5322    0.9259 H   0  0  0  0  0  0  0  0  0  0  0  0
   -1.7504   -4.5412   -0.8539 H   0  0  0  0  0  0  0  0  0  0  0  0
   -0.4089   -6.6265   -0.8634 H   0  0  0  0  0  0  0  0  0  0  0  0
   -0.3823   -6.6176    0.9164 H   0  0  0  0  0  0  0  0  0  0  0  0
   -1.9209   -6.8438    0.0504 H   0  0  0  0  0  0  0  0  0  0  0  0
    9.3469   -3.6126   -2.1542 O   0  5  0  0  0  0  0  0  0  0  0  0
  1  2  1  0  0  0  0
  1 28  1  0  0  0  0
  1 29  1  0  0  0  0
  1 30  1  0  0  0  0
  2  3  1  0  0  0  0
  2 31  1  0  0  0  0
  2 32  1  0  0  0  0
  3  4  1  0  0  0  0
  4  9  2  0  0  0  0
  4  5  1  0  0  0  0
  5  6  2  0  0  0  0
  5 33  1  0  0  0  0
  6  7  1  0  0  0  0
  6 25  1  0  0  0  0
  7  8  2  0  0  0  0
  7 14  1  0  0  0  0
  8 13  1  0  0  0  0
  8  9  1  0  0  0  0
  9 10  1  0  0  0  0
 10 11  2  0  0  0  0
 10 34  1  0  0  0  0
 11 12  1  0  0  0  0
 11 35  1  0  0  0  0
 12 13  2  0  0  0  0
 12 36  1  0  0  0  0
 13 37  1  0  0  0  0
 14 18  1  0  0  0  0
 14 15  2  0  0  0  0
 15 16  1  0  0  0  0
 15 38  1  0  0  0  0
 16 17  1  0  0  0  0
 17 18  2  0  0  0  0
 17 19  1  0  0  0  0
 19 20  1  0  0  0  0
 19 39  1  0  0  0  0
 20 21  1  0  0  0  0
 20 22  1  0  0  0  0
 20 23  1  0  0  0  0
 22 40  1  0  0  0  0
 22 41  1  0  0  0  0
 22 42  1  0  0  0  0
 23 24  2  0  0  0  0
 23 48  1  0  0  0  0
 25 26  1  0  0  0  0
 26 27  1  0  0  0  0
 26 43  1  0  0  0  0
 26 44  1  0  0  0  0
 27 45  1  0  0  0  0
 27 46  1  0  0  0  0
 27 47  1  0  0  0  0
M  CHG  1  48  -1
M  END
$$$$
ZINC03856953
  -OEChem-08230709463D

 48 50  0     1  0  0  0  0  0999 V2000
   -4.8091   -0.0354    0.0625 C   0  0  0  0  0  0  0  0  0  0  0  0
   -3.5656   -0.9266    0.0475 C   0  0  0  0  0  0  0  0  0  0  0  0
   -2.3938   -0.1090    0.0249 O   0  0  0  0  0  0  0  0  0  0  0  0
   -1.1958   -0.7487    0.0093 C   0  0  0  0  0  0  0  0  0  0  0  0
   -1.1491   -2.1242    0.0161 C   0  0  0  0  0  0  0  0  0  0  0  0
    0.0705   -2.7986    0.0013 C   0  0  0  0  0  0  0  0  0  0  0  0
    1.2681   -2.0952   -0.0216 C   0  0  0  0  0  0  0  0  0  0  0  0
    1.2456   -0.6810   -0.0290 C   0  0  0  0  0  0  0  0  0  0  0  0
    0.0019   -0.0041   -0.0133 C   0  0  0  0  0  0  0  0  0  0  0  0
   -0.0174    1.4003   -0.0211 C   0  0  0  0  0  0  0  0  0  0  0  0
    1.1560    2.0907   -0.0436 C   0  0  0  0  0  0  0  0  0  0  0  0
    2.3792    1.4240   -0.0590 C   0  0  0  0  0  0  0  0  0  0  0  0
    2.4349    0.0632   -0.0521 C   0  0  0  0  0  0  0  0  0  0  0  0
    2.5589   -2.8207   -0.0381 C   0  0  0  0  0  0  0  0  0  0  0  0
    2.7986   -3.8254    0.8575 C   0  0  0  0  0  0  0  0  0  0  0  0
    4.4510   -4.3123    0.3788 S   0  0  0  0  0  0  0  0  0  0  0  0
    4.6550   -3.1395   -0.9542 C   0  0  0  0  0  0  0  0  0  0  0  0
    3.4969   -2.5055   -0.9291 N   0  0  0  0  0  0  0  0  0  0  0  0
    5.7393   -2.9497   -1.7953 N   0  0  0  0  0  0  0  0  0  0  0  0
    6.9360   -3.7815   -1.6468 C   0  0  2  0  0  0  0  0  0  0  0  0
    6.6439   -4.7886   -1.3492 H   0  0  0  0  0  0  0  0  0  0  0  0
    7.8473   -3.1777   -0.5764 C   0  0  0  0  0  0  0  0  0  0  0  0
    7.6735   -3.8397   -2.9598 C   0  0  0  0  0  0  0  0  0  0  0  0
    7.2435   -3.2471   -3.9209 O   0  0  0  0  0  0  0  0  0  0  0  0
    0.0882   -4.1572    0.0089 O   0  0  0  0  0  0  0  0  0  0  0  0
   -1.1764   -4.8223    0.0322 C   0  0  0  0  0  0  0  0  0  0  0  0
   -0.9562   -6.3364    0.0376 C   0  0  0  0  0  0  0  0  0  0  0  0
   -4.7912    0.5984    0.9491 H   0  0  0  0  0  0  0  0  0  0  0  0
   -4.8192    0.5893   -0.8306 H   0  0  0  0  0  0  0  0  0  0  0  0
   -5.7029   -0.6591    0.0798 H   0  0  0  0  0  0  0  0  0  0  0  0
   -3.5835   -1.5605   -0.8391 H   0  0  0  0  0  0  0  0  0  0  0  0
   -3.5555   -1.5514    0.9407 H   0  0  0  0  0  0  0  0  0  0  0  0
   -2.0698   -2.6884    0.0335 H   0  0  0  0  0  0  0  0  0  0  0  0
   -0.9585    1.9300   -0.0137 H   0  0  0  0  0  0  0  0  0  0  0  0
    1.1382    3.1705   -0.0495 H   0  0  0  0  0  0  0  0  0  0  0  0
    3.2962    1.9943   -0.0768 H   0  0  0  0  0  0  0  0  0  0  0  0
    3.3900   -0.4408   -0.0646 H   0  0  0  0  0  0  0  0  0  0  0  0
    2.1646   -4.2169    1.6393 H   0  0  0  0  0  0  0  0  0  0  0  0
    5.7061   -2.2659   -2.4825 H   0  0  0  0  0  0  0  0  0  0  0  0
    8.1395   -2.1706   -0.8739 H   0  0  0  0  0  0  0  0  0  0  0  0
    7.3140   -3.1356    0.3733 H   0  0  0  0  0  0  0  0  0  0  0  0
    8.7377   -3.7966   -0.4659 H   0  0  0  0  0  0  0  0  0  0  0  0
   -1.7235   -4.5315    0.9290 H   0  0  0  0  0  0  0  0  0  0  0  0
   -1.7507   -4.5418   -0.8508 H   0  0  0  0  0  0  0  0  0  0  0  0
   -0.4092   -6.6272   -0.8592 H   0  0  0  0  0  0  0  0  0  0  0  0
   -0.3819   -6.6169    0.9205 H   0  0  0  0  0  0  0  0  0  0  0  0
   -1.9208   -6.8437    0.0553 H   0  0  0  0  0  0  0  0  0  0  0  0
    8.8079   -4.5499   -3.0614 O   0  5  0  0  0  0  0  0  0  0  0  0
  1  2  1  0  0  0  0
  1 28  1  0  0  0  0
  1 29  1  0  0  0  0
  1 30  1  0  0  0  0
  2  3  1  0  0  0  0
  2 31  1  0  0  0  0
  2 32  1  0  0  0  0
  3  4  1  0  0  0  0
  4  9  2  0  0  0  0
  4  5  1  0  0  0  0
  5  6  2  0  0  0  0
  5 33  1  0  0  0  0
  6  7  1  0  0  0  0
  6 25  1  0  0  0  0
  7  8  2  0  0  0  0
  7 14  1  0  0  0  0
  8 13  1  0  0  0  0
  8  9  1  0  0  0  0
  9 10  1  0  0  0  0
 10 11  2  0  0  0  0
 10 34  1  0  0  0  0
 11 12  1  0  0  0  0
 11 35  1  0  0  0  0
 12 13  2  0  0  0  0
 12 36  1  0  0  0  0
 13 37  1  0  0  0  0
 14 18  1  0  0  0  0
 14 15  2  0  0  0  0
 15 16  1  0  0  0  0
 15 38  1  0  0  0  0
 16 17  1  0  0  0  0
 17 18  2  0  0  0  0
 17 19  1  0  0  0  0
 19 20  1  0  0  0  0
 19 39  1  0  0  0  0
 20 21  1  0  0  0  0
 20 22  1  0  0  0  0
 20 23  1  0  0  0  0
 22 40  1  0  0  0  0
 22 41  1  0  0  0  0
 22 42  1  0  0  0  0
 23 24  2  0  0  0  0
 23 48  1  0  0  0  0
 25 26  1  0  0  0  0
 26 27  1  0  0  0  0
 26 43  1  0  0  0  0
 26 44  1  0  0  0  0
 27 45  1  0  0  0  0
 27 46  1  0  0  0  0
 27 47  1  0  0  0  0
M  CHG  1  48  -1
M  END
$$$$
ZINC03856958
  -OEChem-08230709463D

 51 53  0     1  0  0  0  0  0999 V2000
    9.2368   -1.5038   -3.1520 C   0  0  0  0  0  0  0  0  0  0  0  0
    8.0683   -2.1777   -2.4302 C   0  0  0  0  0  0  0  0  0  0  0  0
    7.7080   -3.4799   -3.1482 C   0  0  0  0  0  0  0  0  0  0  0  0
    8.4700   -2.4857   -0.9863 C   0  0  0  0  0  0  0  0  0  0  0  0
    7.2600   -3.0320   -0.2257 C   0  0  1  0  0  0  0  0  0  0  0  0
    6.8667   -3.9046   -0.7472 H   0  0  0  0  0  0  0  0  0  0  0  0
    7.6784   -3.4256    1.1675 C   0  0  0  0  0  0  0  0  0  0  0  0
    7.1635   -2.8979    2.1247 O   0  0  0  0  0  0  0  0  0  0  0  0
    6.2235   -1.9994   -0.1509 N   0  0  0  0  0  0  0  0  0  0  0  0
    4.8951   -2.3614    0.0025 C   0  0  0  0  0  0  0  0  0  0  0  0
    3.8244   -1.5926    0.0840 N   0  0  0  0  0  0  0  0  0  0  0  0
    2.6103   -2.1175    0.2366 C   0  0  0  0  0  0  0  0  0  0  0  0
    2.4726   -3.4763    0.2982 C   0  0  0  0  0  0  0  0  0  0  0  0
    4.1765   -3.9923    0.1352 S   0  0  0  0  0  0  0  0  0  0  0  0
    1.4217   -1.2395    0.3323 C   0  0  0  0  0  0  0  0  0  0  0  0
    1.4160   -0.1430    1.2264 C   0  0  0  0  0  0  0  0  0  0  0  0
    2.5258    0.1368    2.0379 C   0  0  0  0  0  0  0  0  0  0  0  0
    2.4886    1.1998    2.8887 C   0  0  0  0  0  0  0  0  0  0  0  0
    1.3623    2.0160    2.9658 C   0  0  0  0  0  0  0  0  0  0  0  0
    0.2678    1.7735    2.1929 C   0  0  0  0  0  0  0  0  0  0  0  0
    0.2709    0.6860    1.3042 C   0  0  0  0  0  0  0  0  0  0  0  0
   -0.8471    0.4075    0.4901 C   0  0  0  0  0  0  0  0  0  0  0  0
   -0.8184   -0.6642   -0.3723 C   0  0  0  0  0  0  0  0  0  0  0  0
    0.3047   -1.4861   -0.4551 C   0  0  0  0  0  0  0  0  0  0  0  0
    0.3065   -2.5382   -1.3148 O   0  0  0  0  0  0  0  0  0  0  0  0
   -0.8724   -2.7388   -2.0971 C   0  0  0  0  0  0  0  0  0  0  0  0
   -1.9506    1.1965    0.5576 O   0  0  0  0  0  0  0  0  0  0  0  0
   -3.0451    0.8554   -0.2955 C   0  0  0  0  0  0  0  0  0  0  0  0
   10.1237   -2.1326   -3.0736 H   0  0  0  0  0  0  0  0  0  0  0  0
    8.9827   -1.3634   -4.2026 H   0  0  0  0  0  0  0  0  0  0  0  0
    9.4368   -0.5350   -2.6940 H   0  0  0  0  0  0  0  0  0  0  0  0
    7.2061   -1.5107   -2.4330 H   0  0  0  0  0  0  0  0  0  0  0  0
    6.8755   -3.9600   -2.6339 H   0  0  0  0  0  0  0  0  0  0  0  0
    7.4218   -3.2604   -4.1768 H   0  0  0  0  0  0  0  0  0  0  0  0
    8.5701   -4.1468   -3.1453 H   0  0  0  0  0  0  0  0  0  0  0  0
    8.8206   -1.5732   -0.5042 H   0  0  0  0  0  0  0  0  0  0  0  0
    9.2677   -3.2286   -0.9818 H   0  0  0  0  0  0  0  0  0  0  0  0
    6.4672   -1.0623   -0.2089 H   0  0  0  0  0  0  0  0  0  0  0  0
    1.5802   -4.0735    0.4136 H   0  0  0  0  0  0  0  0  0  0  0  0
    3.4056   -0.4876    1.9879 H   0  0  0  0  0  0  0  0  0  0  0  0
    3.3443    1.4129    3.5122 H   0  0  0  0  0  0  0  0  0  0  0  0
    1.3573    2.8531    3.6481 H   0  0  0  0  0  0  0  0  0  0  0  0
   -0.5969    2.4171    2.2597 H   0  0  0  0  0  0  0  0  0  0  0  0
   -1.6776   -0.8720   -0.9928 H   0  0  0  0  0  0  0  0  0  0  0  0
   -0.7385   -3.6094   -2.7392 H   0  0  0  0  0  0  0  0  0  0  0  0
   -1.7236   -2.9022   -1.4362 H   0  0  0  0  0  0  0  0  0  0  0  0
   -1.0542   -1.8579   -2.7127 H   0  0  0  0  0  0  0  0  0  0  0  0
   -2.7209    0.8936   -1.3354 H   0  0  0  0  0  0  0  0  0  0  0  0
   -3.3900   -0.1513   -0.0592 H   0  0  0  0  0  0  0  0  0  0  0  0
   -3.8595    1.5636   -0.1425 H   0  0  0  0  0  0  0  0  0  0  0  0
    8.6230   -4.3626    1.3450 O   0  5  0  0  0  0  0  0  0  0  0  0
  1  2  1  0  0  0  0
  1 29  1  0  0  0  0
  1 30  1  0  0  0  0
  1 31  1  0  0  0  0
  2  3  1  0  0  0  0
  2  4  1  0  0  0  0
  2 32  1  0  0  0  0
  3 33  1  0  0  0  0
  3 34  1  0  0  0  0
  3 35  1  0  0  0  0
  4  5  1  0  0  0  0
  4 36  1  0  0  0  0
  4 37  1  0  0  0  0
  5  6  1  0  0  0  0
  5  7  1  0  0  0  0
  5  9  1  0  0  0  0
  7  8  2  0  0  0  0
  7 51  1  0  0  0  0
  9 10  1  0  0  0  0
  9 38  1  0  0  0  0
 10 14  1  0  0  0  0
 10 11  2  0  0  0  0
 11 12  1  0  0  0  0
 12 13  2  0  0  0  0
 12 15  1  0  0  0  0
 13 14  1  0  0  0  0
 13 39  1  0  0  0  0
 15 24  2  0  0  0  0
 15 16  1  0  0  0  0
 16 21  2  0  0  0  0
 16 17  1  0  0  0  0
 17 18  2  0  0  0  0
 17 40  1  0  0  0  0
 18 19  1  0  0  0  0
 18 41  1  0  0  0  0
 19 20  2  0  0  0  0
 19 42  1  0  0  0  0
 20 21  1  0  0  0  0
 20 43  1  0  0  0  0
 21 22  1  0  0  0  0
 22 23  2  0  0  0  0
 22 27  1  0  0  0  0
 23 24  1  0  0  0  0
 23 44  1  0  0  0  0
 24 25  1  0  0  0  0
 25 26  1  0  0  0  0
 26 45  1  0  0  0  0
 26 46  1  0  0  0  0
 26 47  1  0  0  0  0
 27 28  1  0  0  0  0
 28 48  1  0  0  0  0
 28 49  1  0  0  0  0
 28 50  1  0  0  0  0
M  CHG  1  51  -1
M  END
$$$$
ZINC03856959
  -OEChem-08230709463D

 51 53  0     1  0  0  0  0  0999 V2000
    8.5071   -3.4056    2.5169 C   0  0  0  0  0  0  0  0  0  0  0  0
    8.3880   -2.1037    1.7220 C   0  0  0  0  0  0  0  0  0  0  0  0
    9.4892   -1.1361    2.1603 C   0  0  0  0  0  0  0  0  0  0  0  0
    8.5362   -2.4025    0.2288 C   0  0  0  0  0  0  0  0  0  0  0  0
    7.3556   -3.2551   -0.2403 C   0  0  2  0  0  0  0  0  0  0  0  0
    7.2933   -4.1564    0.3694 H   0  0  0  0  0  0  0  0  0  0  0  0
    7.5549   -3.6380   -1.6842 C   0  0  0  0  0  0  0  0  0  0  0  0
    6.7439   -3.3042   -2.5152 O   0  0  0  0  0  0  0  0  0  0  0  0
    6.1150   -2.4876   -0.1055 N   0  0  0  0  0  0  0  0  0  0  0  0
    4.9052   -3.1466    0.0404 C   0  0  0  0  0  0  0  0  0  0  0  0
    3.6910   -2.6438    0.1698 N   0  0  0  0  0  0  0  0  0  0  0  0
    2.6291   -3.4356    0.3055 C   0  0  0  0  0  0  0  0  0  0  0  0
    2.8015   -4.7917    0.2990 C   0  0  0  0  0  0  0  0  0  0  0  0
    4.5743   -4.9020    0.0958 S   0  0  0  0  0  0  0  0  0  0  0  0
    1.2757   -2.8537    0.4558 C   0  0  0  0  0  0  0  0  0  0  0  0
    1.0408   -1.8320    1.4059 C   0  0  0  0  0  0  0  0  0  0  0  0
    2.0746   -1.3496    2.2226 C   0  0  0  0  0  0  0  0  0  0  0  0
    1.8157   -0.3655    3.1280 C   0  0  0  0  0  0  0  0  0  0  0  0
    0.5365    0.1711    3.2560 C   0  0  0  0  0  0  0  0  0  0  0  0
   -0.4900   -0.2734    2.4796 C   0  0  0  0  0  0  0  0  0  0  0  0
   -0.2596   -1.2872    1.5354 C   0  0  0  0  0  0  0  0  0  0  0  0
   -1.3017   -1.7700    0.7162 C   0  0  0  0  0  0  0  0  0  0  0  0
   -1.0493   -2.7640   -0.2012 C   0  0  0  0  0  0  0  0  0  0  0  0
    0.2279   -3.3066   -0.3351 C   0  0  0  0  0  0  0  0  0  0  0  0
    0.4497   -4.2876   -1.2486 O   0  0  0  0  0  0  0  0  0  0  0  0
   -0.6686   -4.7100   -2.0315 C   0  0  0  0  0  0  0  0  0  0  0  0
   -2.5525   -1.2536    0.8322 O   0  0  0  0  0  0  0  0  0  0  0  0
   -3.5585   -1.7902   -0.0293 C   0  0  0  0  0  0  0  0  0  0  0  0
    9.4820   -3.8566    2.3316 H   0  0  0  0  0  0  0  0  0  0  0  0
    8.4015   -3.1928    3.5807 H   0  0  0  0  0  0  0  0  0  0  0  0
    7.7226   -4.0950    2.2047 H   0  0  0  0  0  0  0  0  0  0  0  0
    7.4131   -1.6528    1.9073 H   0  0  0  0  0  0  0  0  0  0  0  0
    9.4592   -0.2441    1.5346 H   0  0  0  0  0  0  0  0  0  0  0  0
    9.3324   -0.8549    3.2016 H   0  0  0  0  0  0  0  0  0  0  0  0
   10.4604   -1.6200    2.0569 H   0  0  0  0  0  0  0  0  0  0  0  0
    9.4664   -2.9442    0.0573 H   0  0  0  0  0  0  0  0  0  0  0  0
    8.5528   -1.4663   -0.3291 H   0  0  0  0  0  0  0  0  0  0  0  0
    6.1407   -1.5180   -0.1183 H   0  0  0  0  0  0  0  0  0  0  0  0
    2.0686   -5.5796    0.3915 H   0  0  0  0  0  0  0  0  0  0  0  0
    3.0710   -1.7565    2.1336 H   0  0  0  0  0  0  0  0  0  0  0  0
    2.6134    0.0042    3.7552 H   0  0  0  0  0  0  0  0  0  0  0  0
    0.3565    0.9510    3.9811 H   0  0  0  0  0  0  0  0  0  0  0  0
   -1.4758    0.1547    2.5863 H   0  0  0  0  0  0  0  0  0  0  0  0
   -1.8514   -3.1290   -0.8255 H   0  0  0  0  0  0  0  0  0  0  0  0
   -0.3549   -5.4954   -2.7191 H   0  0  0  0  0  0  0  0  0  0  0  0
   -1.4487   -5.0933   -1.3737 H   0  0  0  0  0  0  0  0  0  0  0  0
   -1.0553   -3.8635   -2.5989 H   0  0  0  0  0  0  0  0  0  0  0  0
   -3.2705   -1.6296   -1.0682 H   0  0  0  0  0  0  0  0  0  0  0  0
   -3.6643   -2.8589    0.1573 H   0  0  0  0  0  0  0  0  0  0  0  0
   -4.5078   -1.2915    0.1659 H   0  0  0  0  0  0  0  0  0  0  0  0
    8.6334   -4.3501   -2.0469 O   0  5  0  0  0  0  0  0  0  0  0  0
  1  2  1  0  0  0  0
  1 29  1  0  0  0  0
  1 30  1  0  0  0  0
  1 31  1  0  0  0  0
  2  3  1  0  0  0  0
  2  4  1  0  0  0  0
  2 32  1  0  0  0  0
  3 33  1  0  0  0  0
  3 34  1  0  0  0  0
  3 35  1  0  0  0  0
  4  5  1  0  0  0  0
  4 36  1  0  0  0  0
  4 37  1  0  0  0  0
  5  6  1  0  0  0  0
  5  7  1  0  0  0  0
  5  9  1  0  0  0  0
  7  8  2  0  0  0  0
  7 51  1  0  0  0  0
  9 10  1  0  0  0  0
  9 38  1  0  0  0  0
 10 14  1  0  0  0  0
 10 11  2  0  0  0  0
 11 12  1  0  0  0  0
 12 13  2  0  0  0  0
 12 15  1  0  0  0  0
 13 14  1  0  0  0  0
 13 39  1  0  0  0  0
 15 24  2  0  0  0  0
 15 16  1  0  0  0  0
 16 21  2  0  0  0  0
 16 17  1  0  0  0  0
 17 18  2  0  0  0  0
 17 40  1  0  0  0  0
 18 19  1  0  0  0  0
 18 41  1  0  0  0  0
 19 20  2  0  0  0  0
 19 42  1  0  0  0  0
 20 21  1  0  0  0  0
 20 43  1  0  0  0  0
 21 22  1  0  0  0  0
 22 23  2  0  0  0  0
 22 27  1  0  0  0  0
 23 24  1  0  0  0  0
 23 44  1  0  0  0  0
 24 25  1  0  0  0  0
 25 26  1  0  0  0  0
 26 45  1  0  0  0  0
 26 46  1  0  0  0  0
 26 47  1  0  0  0  0
 27 28  1  0  0  0  0
 28 48  1  0  0  0  0
 28 49  1  0  0  0  0
 28 50  1  0  0  0  0
M  CHG  1  51  -1
M  END
$$$$
ZINC03856960
  -OEChem-08230709463D

 51 53  0     1  0  0  0  0  0999 V2000
    8.7027   -0.4043   -2.6173 C   0  0  0  0  0  0  0  0  0  0  0  0
    7.8118   -1.5564   -2.1483 C   0  0  0  0  0  0  0  0  0  0  0  0
    8.2132   -1.9668   -0.7301 C   0  0  1  0  0  0  0  0  0  0  0  0
    9.2744   -2.2148   -0.7102 H   0  0  0  0  0  0  0  0  0  0  0  0
    7.9420   -0.8085    0.2320 C   0  0  0  0  0  0  0  0  0  0  0  0
    7.3961   -3.1874   -0.3019 C   0  0  1  0  0  0  0  0  0  0  0  0
    7.5892   -4.0126   -0.9874 H   0  0  0  0  0  0  0  0  0  0  0  0
    7.7916   -3.5918    1.0949 C   0  0  0  0  0  0  0  0  0  0  0  0
    7.1098   -3.2604    2.0357 O   0  0  0  0  0  0  0  0  0  0  0  0
    5.9698   -2.8541   -0.3283 N   0  0  0  0  0  0  0  0  0  0  0  0
    5.0273   -3.8558   -0.4942 C   0  0  0  0  0  0  0  0  0  0  0  0
    3.7113   -3.7627   -0.5507 N   0  0  0  0  0  0  0  0  0  0  0  0
    2.9511   -4.8440   -0.7120 C   0  0  0  0  0  0  0  0  0  0  0  0
    3.5475   -6.0682   -0.8321 C   0  0  0  0  0  0  0  0  0  0  0  0
    5.2715   -5.6147   -0.6957 S   0  0  0  0  0  0  0  0  0  0  0  0
    1.4764   -4.7210   -0.7667 C   0  0  0  0  0  0  0  0  0  0  0  0
    0.7856   -3.9841    0.2239 C   0  0  0  0  0  0  0  0  0  0  0  0
    1.4740   -3.3579    1.2739 C   0  0  0  0  0  0  0  0  0  0  0  0
    0.7796   -2.6562    2.2122 C   0  0  0  0  0  0  0  0  0  0  0  0
   -0.6079   -2.5502    2.1453 C   0  0  0  0  0  0  0  0  0  0  0  0
   -1.3078   -3.1452    1.1402 C   0  0  0  0  0  0  0  0  0  0  0  0
   -0.6245   -3.8769    0.1552 C   0  0  0  0  0  0  0  0  0  0  0  0
   -1.3202   -4.5056   -0.8988 C   0  0  0  0  0  0  0  0  0  0  0  0
   -0.6269   -5.2167   -1.8511 C   0  0  0  0  0  0  0  0  0  0  0  0
    0.7615   -5.3278   -1.7910 C   0  0  0  0  0  0  0  0  0  0  0  0
    1.4216   -6.0364   -2.7442 O   0  0  0  0  0  0  0  0  0  0  0  0
    0.6298   -6.6366   -3.7712 C   0  0  0  0  0  0  0  0  0  0  0  0
   -2.6730   -4.4092   -0.9734 O   0  0  0  0  0  0  0  0  0  0  0  0
   -3.3112   -5.0708   -2.0675 C   0  0  0  0  0  0  0  0  0  0  0  0
    8.4168   -0.1120   -3.6276 H   0  0  0  0  0  0  0  0  0  0  0  0
    8.5818    0.4453   -1.9452 H   0  0  0  0  0  0  0  0  0  0  0  0
    9.7443   -0.7256   -2.6130 H   0  0  0  0  0  0  0  0  0  0  0  0
    7.9327   -2.4060   -2.8204 H   0  0  0  0  0  0  0  0  0  0  0  0
    6.7702   -1.2352   -2.1526 H   0  0  0  0  0  0  0  0  0  0  0  0
    8.2279   -1.1009    1.2424 H   0  0  0  0  0  0  0  0  0  0  0  0
    8.5241    0.0611   -0.0730 H   0  0  0  0  0  0  0  0  0  0  0  0
    6.8807   -0.5605    0.2122 H   0  0  0  0  0  0  0  0  0  0  0  0
    5.6853   -1.9320   -0.2297 H   0  0  0  0  0  0  0  0  0  0  0  0
    3.1004   -7.0414   -0.9711 H   0  0  0  0  0  0  0  0  0  0  0  0
    2.5496   -3.4317    1.3376 H   0  0  0  0  0  0  0  0  0  0  0  0
    1.3120   -2.1751    3.0193 H   0  0  0  0  0  0  0  0  0  0  0  0
   -1.1359   -1.9878    2.9012 H   0  0  0  0  0  0  0  0  0  0  0  0
   -2.3828   -3.0512    1.0981 H   0  0  0  0  0  0  0  0  0  0  0  0
   -1.1654   -5.6956   -2.6554 H   0  0  0  0  0  0  0  0  0  0  0  0
   -0.0768   -7.3355   -3.3235 H   0  0  0  0  0  0  0  0  0  0  0  0
    0.0832   -5.8615   -4.3084 H   0  0  0  0  0  0  0  0  0  0  0  0
    1.2789   -7.1707   -4.4650 H   0  0  0  0  0  0  0  0  0  0  0  0
   -2.9363   -4.6641   -3.0067 H   0  0  0  0  0  0  0  0  0  0  0  0
   -3.0957   -6.1384   -2.0221 H   0  0  0  0  0  0  0  0  0  0  0  0
   -4.3883   -4.9147   -2.0081 H   0  0  0  0  0  0  0  0  0  0  0  0
    8.9014   -4.3203    1.2939 O   0  5  0  0  0  0  0  0  0  0  0  0
  1  2  1  0  0  0  0
  1 30  1  0  0  0  0
  1 31  1  0  0  0  0
  1 32  1  0  0  0  0
  2  3  1  0  0  0  0
  2 33  1  0  0  0  0
  2 34  1  0  0  0  0
  3  4  1  0  0  0  0
  3  5  1  0  0  0  0
  3  6  1  0  0  0  0
  5 35  1  0  0  0  0
  5 36  1  0  0  0  0
  5 37  1  0  0  0  0
  6  7  1  0  0  0  0
  6  8  1  0  0  0  0
  6 10  1  0  0  0  0
  8  9  2  0  0  0  0
  8 51  1  0  0  0  0
 10 11  1  0  0  0  0
 10 38  1  0  0  0  0
 11 15  1  0  0  0  0
 11 12  2  0  0  0  0
 12 13  1  0  0  0  0
 13 14  2  0  0  0  0
 13 16  1  0  0  0  0
 14 15  1  0  0  0  0
 14 39  1  0  0  0  0
 16 25  2  0  0  0  0
 16 17  1  0  0  0  0
 17 22  2  0  0  0  0
 17 18  1  0  0  0  0
 18 19  2  0  0  0  0
 18 40  1  0  0  0  0
 19 20  1  0  0  0  0
 19 41  1  0  0  0  0
 20 21  2  0  0  0  0
 20 42  1  0  0  0  0
 21 22  1  0  0  0  0
 21 43  1  0  0  0  0
 22 23  1  0  0  0  0
 23 24  2  0  0  0  0
 23 28  1  0  0  0  0
 24 25  1  0  0  0  0
 24 44  1  0  0  0  0
 25 26  1  0  0  0  0
 26 27  1  0  0  0  0
 27 45  1  0  0  0  0
 27 46  1  0  0  0  0
 27 47  1  0  0  0  0
 28 29  1  0  0  0  0
 29 48  1  0  0  0  0
 29 49  1  0  0  0  0
 29 50  1  0  0  0  0
M  CHG  1  51  -1
M  END
$$$$
ZINC03856961
  -OEChem-08230709463D

 51 53  0     1  0  0  0  0  0999 V2000
   10.7603   -2.8419   -1.9221 C   0  0  0  0  0  0  0  0  0  0  0  0
    9.6390   -3.4706   -1.0925 C   0  0  0  0  0  0  0  0  0  0  0  0
    8.4710   -2.4881   -0.9860 C   0  0  2  0  0  0  0  0  0  0  0  0
    8.1563   -2.1881   -1.9856 H   0  0  0  0  0  0  0  0  0  0  0  0
    8.9135   -1.2532   -0.1986 C   0  0  0  0  0  0  0  0  0  0  0  0
    7.3022   -3.1615   -0.2640 C   0  0  1  0  0  0  0  0  0  0  0  0
    7.0448   -4.0889   -0.7758 H   0  0  0  0  0  0  0  0  0  0  0  0
    7.6982   -3.4656    1.1579 C   0  0  0  0  0  0  0  0  0  0  0  0
    7.0768   -2.9825    2.0746 O   0  0  0  0  0  0  0  0  0  0  0  0
    6.1441   -2.2644   -0.2672 N   0  0  0  0  0  0  0  0  0  0  0  0
    4.8644   -2.7847   -0.1623 C   0  0  0  0  0  0  0  0  0  0  0  0
    3.7047   -2.1533   -0.1515 N   0  0  0  0  0  0  0  0  0  0  0  0
    2.5585   -2.8211   -0.0376 C   0  0  0  0  0  0  0  0  0  0  0  0
    2.5861   -4.1846    0.0581 C   0  0  0  0  0  0  0  0  0  0  0  0
    4.3464   -4.4887   -0.0135 S   0  0  0  0  0  0  0  0  0  0  0  0
    1.2677   -2.0955   -0.0208 C   0  0  0  0  0  0  0  0  0  0  0  0
    1.0841   -0.9877    0.8398 C   0  0  0  0  0  0  0  0  0  0  0  0
    2.1107   -0.5534    1.6919 C   0  0  0  0  0  0  0  0  0  0  0  0
    1.9021    0.5162    2.5089 C   0  0  0  0  0  0  0  0  0  0  0  0
    0.6816    1.1878    2.5116 C   0  0  0  0  0  0  0  0  0  0  0  0
   -0.3363    0.7933    1.6976 C   0  0  0  0  0  0  0  0  0  0  0  0
   -0.1566   -0.3057    0.8420 C   0  0  0  0  0  0  0  0  0  0  0  0
   -1.1914   -0.7398   -0.0131 C   0  0  0  0  0  0  0  0  0  0  0  0
   -0.9896   -1.8194   -0.8418 C   0  0  0  0  0  0  0  0  0  0  0  0
    0.2287   -2.4972   -0.8502 C   0  0  0  0  0  0  0  0  0  0  0  0
    0.4014   -3.5606   -1.6780 O   0  0  0  0  0  0  0  0  0  0  0  0
   -0.7048   -3.9243   -2.5064 C   0  0  0  0  0  0  0  0  0  0  0  0
   -2.3852   -0.0921   -0.0189 O   0  0  0  0  0  0  0  0  0  0  0  0
   -3.3871   -0.5863   -0.9100 C   0  0  0  0  0  0  0  0  0  0  0  0
   11.0994   -1.9253   -1.4393 H   0  0  0  0  0  0  0  0  0  0  0  0
   11.5924   -3.5419   -1.9979 H   0  0  0  0  0  0  0  0  0  0  0  0
   10.3880   -2.6106   -2.9201 H   0  0  0  0  0  0  0  0  0  0  0  0
   10.0113   -3.7019   -0.0945 H   0  0  0  0  0  0  0  0  0  0  0  0
    9.2999   -4.3871   -1.5752 H   0  0  0  0  0  0  0  0  0  0  0  0
    9.2282   -1.5532    0.8010 H   0  0  0  0  0  0  0  0  0  0  0  0
    9.7461   -0.7734   -0.7129 H   0  0  0  0  0  0  0  0  0  0  0  0
    8.0814   -0.5532   -0.1227 H   0  0  0  0  0  0  0  0  0  0  0  0
    6.2732   -1.3060   -0.3426 H   0  0  0  0  0  0  0  0  0  0  0  0
    1.7695   -4.8851    0.1516 H   0  0  0  0  0  0  0  0  0  0  0  0
    3.0620   -1.0647    1.6996 H   0  0  0  0  0  0  0  0  0  0  0  0
    2.6942    0.8486    3.1636 H   0  0  0  0  0  0  0  0  0  0  0  0
    0.5408    2.0335    3.1684 H   0  0  0  0  0  0  0  0  0  0  0  0
   -1.2758    1.3259    1.7068 H   0  0  0  0  0  0  0  0  0  0  0  0
   -1.7856   -2.1465   -1.4943 H   0  0  0  0  0  0  0  0  0  0  0  0
   -1.5603   -4.1767   -1.8799 H   0  0  0  0  0  0  0  0  0  0  0  0
   -0.9637   -3.0873   -3.1549 H   0  0  0  0  0  0  0  0  0  0  0  0
   -0.4342   -4.7862   -3.1162 H   0  0  0  0  0  0  0  0  0  0  0  0
   -3.0200   -0.5331   -1.9349 H   0  0  0  0  0  0  0  0  0  0  0  0
   -3.6170   -1.6220   -0.6597 H   0  0  0  0  0  0  0  0  0  0  0  0
   -4.2885    0.0192   -0.8150 H   0  0  0  0  0  0  0  0  0  0  0  0
    8.7413   -4.2732    1.4060 O   0  5  0  0  0  0  0  0  0  0  0  0
  1  2  1  0  0  0  0
  1 30  1  0  0  0  0
  1 31  1  0  0  0  0
  1 32  1  0  0  0  0
  2  3  1  0  0  0  0
  2 33  1  0  0  0  0
  2 34  1  0  0  0  0
  3  4  1  0  0  0  0
  3  5  1  0  0  0  0
  3  6  1  0  0  0  0
  5 35  1  0  0  0  0
  5 36  1  0  0  0  0
  5 37  1  0  0  0  0
  6  7  1  0  0  0  0
  6  8  1  0  0  0  0
  6 10  1  0  0  0  0
  8  9  2  0  0  0  0
  8 51  1  0  0  0  0
 10 11  1  0  0  0  0
 10 38  1  0  0  0  0
 11 15  1  0  0  0  0
 11 12  2  0  0  0  0
 12 13  1  0  0  0  0
 13 14  2  0  0  0  0
 13 16  1  0  0  0  0
 14 15  1  0  0  0  0
 14 39  1  0  0  0  0
 16 25  2  0  0  0  0
 16 17  1  0  0  0  0
 17 22  2  0  0  0  0
 17 18  1  0  0  0  0
 18 19  2  0  0  0  0
 18 40  1  0  0  0  0
 19 20  1  0  0  0  0
 19 41  1  0  0  0  0
 20 21  2  0  0  0  0
 20 42  1  0  0  0  0
 21 22  1  0  0  0  0
 21 43  1  0  0  0  0
 22 23  1  0  0  0  0
 23 24  2  0  0  0  0
 23 28  1  0  0  0  0
 24 25  1  0  0  0  0
 24 44  1  0  0  0  0
 25 26  1  0  0  0  0
 26 27  1  0  0  0  0
 27 45  1  0  0  0  0
 27 46  1  0  0  0  0
 27 47  1  0  0  0  0
 28 29  1  0  0  0  0
 29 48  1  0  0  0  0
 29 49  1  0  0  0  0
 29 50  1  0  0  0  0
M  CHG  1  51  -1
M  END
$$$$
ZINC03856962
  -OEChem-08230709463D

 51 53  0     1  0  0  0  0  0999 V2000
   10.9480   -2.6153    0.8405 C   0  0  0  0  0  0  0  0  0  0  0  0
    9.7446   -3.3380    0.2317 C   0  0  0  0  0  0  0  0  0  0  0  0
    8.5351   -2.4011    0.2284 C   0  0  1  0  0  0  0  0  0  0  0  0
    8.3564   -2.0350    1.2394 H   0  0  0  0  0  0  0  0  0  0  0  0
    8.8094   -1.2175   -0.7015 C   0  0  0  0  0  0  0  0  0  0  0  0
    7.3022   -3.1615   -0.2640 C   0  0  2  0  0  0  0  0  0  0  0  0
    7.1068   -4.0047    0.3985 H   0  0  0  0  0  0  0  0  0  0  0  0
    7.5493   -3.6677   -1.6618 C   0  0  0  0  0  0  0  0  0  0  0  0
    6.8317   -3.3151   -2.5677 O   0  0  0  0  0  0  0  0  0  0  0  0
    6.1441   -2.2644   -0.2672 N   0  0  0  0  0  0  0  0  0  0  0  0
    4.8644   -2.7847   -0.1623 C   0  0  0  0  0  0  0  0  0  0  0  0
    3.7047   -2.1533   -0.1515 N   0  0  0  0  0  0  0  0  0  0  0  0
    2.5585   -2.8211   -0.0376 C   0  0  0  0  0  0  0  0  0  0  0  0
    2.5861   -4.1846    0.0581 C   0  0  0  0  0  0  0  0  0  0  0  0
    4.3464   -4.4887   -0.0135 S   0  0  0  0  0  0  0  0  0  0  0  0
    1.2677   -2.0955   -0.0208 C   0  0  0  0  0  0  0  0  0  0  0  0
    1.0841   -0.9877    0.8398 C   0  0  0  0  0  0  0  0  0  0  0  0
    2.1107   -0.5534    1.6919 C   0  0  0  0  0  0  0  0  0  0  0  0
    1.9021    0.5162    2.5089 C   0  0  0  0  0  0  0  0  0  0  0  0
    0.6816    1.1878    2.5116 C   0  0  0  0  0  0  0  0  0  0  0  0
   -0.3363    0.7933    1.6976 C   0  0  0  0  0  0  0  0  0  0  0  0
   -0.1566   -0.3057    0.8420 C   0  0  0  0  0  0  0  0  0  0  0  0
   -1.1914   -0.7398   -0.0131 C   0  0  0  0  0  0  0  0  0  0  0  0
   -0.9896   -1.8194   -0.8418 C   0  0  0  0  0  0  0  0  0  0  0  0
    0.2287   -2.4972   -0.8502 C   0  0  0  0  0  0  0  0  0  0  0  0
    0.4014   -3.5606   -1.6780 O   0  0  0  0  0  0  0  0  0  0  0  0
   -0.7048   -3.9243   -2.5064 C   0  0  0  0  0  0  0  0  0  0  0  0
   -2.3852   -0.0921   -0.0189 O   0  0  0  0  0  0  0  0  0  0  0  0
   -3.3871   -0.5863   -0.9100 C   0  0  0  0  0  0  0  0  0  0  0  0
   11.8096   -3.2829    0.8428 H   0  0  0  0  0  0  0  0  0  0  0  0
   11.1767   -1.7288    0.2490 H   0  0  0  0  0  0  0  0  0  0  0  0
   10.7148   -2.3195    1.8633 H   0  0  0  0  0  0  0  0  0  0  0  0
    9.5159   -4.2246    0.8232 H   0  0  0  0  0  0  0  0  0  0  0  0
    9.9778   -3.6339   -0.7911 H   0  0  0  0  0  0  0  0  0  0  0  0
    7.9477   -0.5499   -0.7038 H   0  0  0  0  0  0  0  0  0  0  0  0
    9.6877   -0.6757   -0.3507 H   0  0  0  0  0  0  0  0  0  0  0  0
    8.9881   -1.5836   -1.7125 H   0  0  0  0  0  0  0  0  0  0  0  0
    6.2732   -1.3060   -0.3426 H   0  0  0  0  0  0  0  0  0  0  0  0
    1.7695   -4.8851    0.1516 H   0  0  0  0  0  0  0  0  0  0  0  0
    3.0620   -1.0647    1.6996 H   0  0  0  0  0  0  0  0  0  0  0  0
    2.6942    0.8486    3.1636 H   0  0  0  0  0  0  0  0  0  0  0  0
    0.5408    2.0335    3.1684 H   0  0  0  0  0  0  0  0  0  0  0  0
   -1.2758    1.3259    1.7068 H   0  0  0  0  0  0  0  0  0  0  0  0
   -1.7856   -2.1465   -1.4943 H   0  0  0  0  0  0  0  0  0  0  0  0
   -1.5603   -4.1767   -1.8799 H   0  0  0  0  0  0  0  0  0  0  0  0
   -0.9637   -3.0873   -3.1549 H   0  0  0  0  0  0  0  0  0  0  0  0
   -0.4342   -4.7862   -3.1162 H   0  0  0  0  0  0  0  0  0  0  0  0
   -4.2885    0.0192   -0.8150 H   0  0  0  0  0  0  0  0  0  0  0  0
   -3.0200   -0.5331   -1.9349 H   0  0  0  0  0  0  0  0  0  0  0  0
   -3.6170   -1.6220   -0.6597 H   0  0  0  0  0  0  0  0  0  0  0  0
    8.5667   -4.5101   -1.9005 O   0  5  0  0  0  0  0  0  0  0  0  0
  1  2  1  0  0  0  0
  1 30  1  0  0  0  0
  1 31  1  0  0  0  0
  1 32  1  0  0  0  0
  2  3  1  0  0  0  0
  2 33  1  0  0  0  0
  2 34  1  0  0  0  0
  3  4  1  0  0  0  0
  3  5  1  0  0  0  0
  3  6  1  0  0  0  0
  5 35  1  0  0  0  0
  5 36  1  0  0  0  0
  5 37  1  0  0  0  0
  6  7  1  0  0  0  0
  6  8  1  0  0  0  0
  6 10  1  0  0  0  0
  8  9  2  0  0  0  0
  8 51  1  0  0  0  0
 10 11  1  0  0  0  0
 10 38  1  0  0  0  0
 11 15  1  0  0  0  0
 11 12  2  0  0  0  0
 12 13  1  0  0  0  0
 13 14  2  0  0  0  0
 13 16  1  0  0  0  0
 14 15  1  0  0  0  0
 14 39  1  0  0  0  0
 16 25  2  0  0  0  0
 16 17  1  0  0  0  0
 17 22  2  0  0  0  0
 17 18  1  0  0  0  0
 18 19  2  0  0  0  0
 18 40  1  0  0  0  0
 19 20  1  0  0  0  0
 19 41  1  0  0  0  0
 20 21  2  0  0  0  0
 20 42  1  0  0  0  0
 21 22  1  0  0  0  0
 21 43  1  0  0  0  0
 22 23  1  0  0  0  0
 23 24  2  0  0  0  0
 23 28  1  0  0  0  0
 24 25  1  0  0  0  0
 24 44  1  0  0  0  0
 25 26  1  0  0  0  0
 26 27  1  0  0  0  0
 27 45  1  0  0  0  0
 27 46  1  0  0  0  0
 27 47  1  0  0  0  0
 28 29  1  0  0  0  0
 29 48  1  0  0  0  0
 29 49  1  0  0  0  0
 29 50  1  0  0  0  0
M  CHG  1  51  -1
M  END
$$$$
ZINC03856963
  -OEChem-08230709463D

 51 53  0     1  0  0  0  0  0999 V2000
    9.6449   -0.7885    1.9159 C   0  0  0  0  0  0  0  0  0  0  0  0
    8.4468   -1.6629    1.5402 C   0  0  0  0  0  0  0  0  0  0  0  0
    8.5084   -1.9988    0.0488 C   0  0  2  0  0  0  0  0  0  0  0  0
    9.4768   -2.4414   -0.1843 H   0  0  0  0  0  0  0  0  0  0  0  0
    8.3218   -0.7199   -0.7701 C   0  0  0  0  0  0  0  0  0  0  0  0
    7.3972   -2.9922   -0.2965 C   0  0  2  0  0  0  0  0  0  0  0  0
    7.5210   -3.8970    0.2985 H   0  0  0  0  0  0  0  0  0  0  0  0
    7.4715   -3.3399   -1.7610 C   0  0  0  0  0  0  0  0  0  0  0  0
    6.7334   -2.7973   -2.5489 O   0  0  0  0  0  0  0  0  0  0  0  0
    6.0946   -2.3893   -0.0032 N   0  0  0  0  0  0  0  0  0  0  0  0
    5.0029   -3.1974    0.2694 C   0  0  0  0  0  0  0  0  0  0  0  0
    3.7588   -2.8536    0.5482 N   0  0  0  0  0  0  0  0  0  0  0  0
    2.8283   -3.7746    0.7911 C   0  0  0  0  0  0  0  0  0  0  0  0
    3.1680   -5.0977    0.7389 C   0  0  0  0  0  0  0  0  0  0  0  0
    4.9044   -4.9808    0.3295 S   0  0  0  0  0  0  0  0  0  0  0  0
    1.4395   -3.3702    1.1083 C   0  0  0  0  0  0  0  0  0  0  0  0
    1.1916   -2.3823    2.0903 C   0  0  0  0  0  0  0  0  0  0  0  0
    2.2457   -1.7674    2.7825 C   0  0  0  0  0  0  0  0  0  0  0  0
    1.9737   -0.8201    3.7226 C   0  0  0  0  0  0  0  0  0  0  0  0
    0.6611   -0.4511    4.0083 C   0  0  0  0  0  0  0  0  0  0  0  0
   -0.3859   -1.0273    3.3556 C   0  0  0  0  0  0  0  0  0  0  0  0
   -0.1427   -2.0079    2.3800 C   0  0  0  0  0  0  0  0  0  0  0  0
   -1.2053   -2.6243    1.6863 C   0  0  0  0  0  0  0  0  0  0  0  0
   -0.9398   -3.5823    0.7350 C   0  0  0  0  0  0  0  0  0  0  0  0
    0.3709   -3.9575    0.4436 C   0  0  0  0  0  0  0  0  0  0  0  0
    0.6051   -4.9065   -0.5001 O   0  0  0  0  0  0  0  0  0  0  0  0
   -0.5359   -5.4726   -1.1480 C   0  0  0  0  0  0  0  0  0  0  0  0
   -2.4889   -2.2725    1.9572 O   0  0  0  0  0  0  0  0  0  0  0  0
   -3.5140   -2.9378    1.2165 C   0  0  0  0  0  0  0  0  0  0  0  0
   10.5685   -1.3266    1.7025 H   0  0  0  0  0  0  0  0  0  0  0  0
    9.6186    0.1331    1.3345 H   0  0  0  0  0  0  0  0  0  0  0  0
    9.6010   -0.5492    2.9784 H   0  0  0  0  0  0  0  0  0  0  0  0
    7.5232   -1.1248    1.7536 H   0  0  0  0  0  0  0  0  0  0  0  0
    8.4731   -2.5845    2.1216 H   0  0  0  0  0  0  0  0  0  0  0  0
    8.3656   -0.9592   -1.8326 H   0  0  0  0  0  0  0  0  0  0  0  0
    7.3534   -0.2773   -0.5371 H   0  0  0  0  0  0  0  0  0  0  0  0
    9.1134   -0.0122   -0.5241 H   0  0  0  0  0  0  0  0  0  0  0  0
    5.9966   -1.4242    0.0001 H   0  0  0  0  0  0  0  0  0  0  0  0
    2.5560   -5.9728    0.9006 H   0  0  0  0  0  0  0  0  0  0  0  0
    3.2680   -2.0436    2.5707 H   0  0  0  0  0  0  0  0  0  0  0  0
    2.7870   -0.3483    4.2540 H   0  0  0  0  0  0  0  0  0  0  0  0
    0.4711    0.3029    4.7578 H   0  0  0  0  0  0  0  0  0  0  0  0
   -1.3983   -0.7285    3.5839 H   0  0  0  0  0  0  0  0  0  0  0  0
   -1.7578   -4.0504    0.2075 H   0  0  0  0  0  0  0  0  0  0  0  0
   -0.2091   -6.2147   -1.8764 H   0  0  0  0  0  0  0  0  0  0  0  0
   -1.1760   -5.9494   -0.4057 H   0  0  0  0  0  0  0  0  0  0  0  0
   -1.0928   -4.6854   -1.6562 H   0  0  0  0  0  0  0  0  0  0  0  0
   -3.3761   -2.7461    0.1524 H   0  0  0  0  0  0  0  0  0  0  0  0
   -3.4588   -4.0104    1.4026 H   0  0  0  0  0  0  0  0  0  0  0  0
   -4.4890   -2.5645    1.5296 H   0  0  0  0  0  0  0  0  0  0  0  0
    8.3575   -4.2523   -2.1901 O   0  5  0  0  0  0  0  0  0  0  0  0
  1  2  1  0  0  0  0
  1 30  1  0  0  0  0
  1 31  1  0  0  0  0
  1 32  1  0  0  0  0
  2  3  1  0  0  0  0
  2 33  1  0  0  0  0
  2 34  1  0  0  0  0
  3  4  1  0  0  0  0
  3  5  1  0  0  0  0
  3  6  1  0  0  0  0
  5 35  1  0  0  0  0
  5 36  1  0  0  0  0
  5 37  1  0  0  0  0
  6  7  1  0  0  0  0
  6  8  1  0  0  0  0
  6 10  1  0  0  0  0
  8  9  2  0  0  0  0
  8 51  1  0  0  0  0
 10 11  1  0  0  0  0
 10 38  1  0  0  0  0
 11 15  1  0  0  0  0
 11 12  2  0  0  0  0
 12 13  1  0  0  0  0
 13 14  2  0  0  0  0
 13 16  1  0  0  0  0
 14 15  1  0  0  0  0
 14 39  1  0  0  0  0
 16 25  2  0  0  0  0
 16 17  1  0  0  0  0
 17 22  2  0  0  0  0
 17 18  1  0  0  0  0
 18 19  2  0  0  0  0
 18 40  1  0  0  0  0
 19 20  1  0  0  0  0
 19 41  1  0  0  0  0
 20 21  2  0  0  0  0
 20 42  1  0  0  0  0
 21 22  1  0  0  0  0
 21 43  1  0  0  0  0
 22 23  1  0  0  0  0
 23 24  2  0  0  0  0
 23 28  1  0  0  0  0
 24 25  1  0  0  0  0
 24 44  1  0  0  0  0
 25 26  1  0  0  0  0
 26 27  1  0  0  0  0
 27 45  1  0  0  0  0
 27 46  1  0  0  0  0
 27 47  1  0  0  0  0
 28 29  1  0  0  0  0
 29 48  1  0  0  0  0
 29 49  1  0  0  0  0
 29 50  1  0  0  0  0
M  CHG  1  51  -1
M  END
$$$$
ZINC03856966
  -OEChem-08230709463D

 48 50  0     1  0  0  0  0  0999 V2000
    7.5681   -4.6163   -5.3518 C   0  0  0  0  0  0  0  0  0  0  0  0
    6.8195   -4.5573   -4.0188 C   0  0  0  0  0  0  0  0  0  0  0  0
    7.6841   -3.8409   -2.9795 C   0  0  0  0  0  0  0  0  0  0  0  0
    6.9355   -3.7820   -1.6465 C   0  0  1  0  0  0  0  0  0  0  0  0
    6.6433   -4.7891   -1.3490 H   0  0  0  0  0  0  0  0  0  0  0  0
    7.8331   -3.1873   -0.5921 C   0  0  0  0  0  0  0  0  0  0  0  0
    7.5067   -2.1726   -0.0230 O   0  0  0  0  0  0  0  0  0  0  0  0
    5.7388   -2.9501   -1.7949 N   0  0  0  0  0  0  0  0  0  0  0  0
    4.6545   -3.1400   -0.9538 C   0  0  0  0  0  0  0  0  0  0  0  0
    3.4961   -2.5065   -0.9291 N   0  0  0  0  0  0  0  0  0  0  0  0
    2.5585   -2.8211   -0.0376 C   0  0  0  0  0  0  0  0  0  0  0  0
    2.7985   -3.8252    0.8586 C   0  0  0  0  0  0  0  0  0  0  0  0
    4.4509   -4.3121    0.3799 S   0  0  0  0  0  0  0  0  0  0  0  0
    1.2677   -2.0955   -0.0208 C   0  0  0  0  0  0  0  0  0  0  0  0
    1.2454   -0.6809   -0.0291 C   0  0  0  0  0  0  0  0  0  0  0  0
    2.4346    0.0630   -0.0522 C   0  0  0  0  0  0  0  0  0  0  0  0
    2.3791    1.4239   -0.0591 C   0  0  0  0  0  0  0  0  0  0  0  0
    1.1560    2.0906   -0.0436 C   0  0  0  0  0  0  0  0  0  0  0  0
   -0.0174    1.4002   -0.0211 C   0  0  0  0  0  0  0  0  0  0  0  0
    0.0019   -0.0041   -0.0133 C   0  0  0  0  0  0  0  0  0  0  0  0
   -1.1961   -0.7488    0.0104 C   0  0  0  0  0  0  0  0  0  0  0  0
   -1.1496   -2.1239    0.0175 C   0  0  0  0  0  0  0  0  0  0  0  0
    0.0703   -2.7986    0.0026 C   0  0  0  0  0  0  0  0  0  0  0  0
    0.0879   -4.1572    0.0106 O   0  0  0  0  0  0  0  0  0  0  0  0
   -1.1767   -4.8222    0.0349 C   0  0  0  0  0  0  0  0  0  0  0  0
   -2.3941   -0.1090    0.0261 O   0  0  0  0  0  0  0  0  0  0  0  0
   -3.5659   -0.9265    0.0497 C   0  0  0  0  0  0  0  0  0  0  0  0
    8.5032   -5.1607   -5.2196 H   0  0  0  0  0  0  0  0  0  0  0  0
    6.9522   -5.1267   -6.0922 H   0  0  0  0  0  0  0  0  0  0  0  0
    7.7824   -3.6036   -5.6933 H   0  0  0  0  0  0  0  0  0  0  0  0
    6.6052   -5.5701   -3.6773 H   0  0  0  0  0  0  0  0  0  0  0  0
    5.8844   -4.0130   -4.1510 H   0  0  0  0  0  0  0  0  0  0  0  0
    7.8984   -2.8282   -3.3210 H   0  0  0  0  0  0  0  0  0  0  0  0
    8.6192   -4.3853   -2.8473 H   0  0  0  0  0  0  0  0  0  0  0  0
    5.7056   -2.2663   -2.4821 H   0  0  0  0  0  0  0  0  0  0  0  0
    2.1646   -4.2166    1.6404 H   0  0  0  0  0  0  0  0  0  0  0  0
    3.3897   -0.4410   -0.0647 H   0  0  0  0  0  0  0  0  0  0  0  0
    3.2962    1.9941   -0.0768 H   0  0  0  0  0  0  0  0  0  0  0  0
    1.1382    3.1705   -0.0498 H   0  0  0  0  0  0  0  0  0  0  0  0
   -0.9585    1.9299   -0.0137 H   0  0  0  0  0  0  0  0  0  0  0  0
   -2.0703   -2.6881    0.0357 H   0  0  0  0  0  0  0  0  0  0  0  0
   -1.0199   -5.9009    0.0389 H   0  0  0  0  0  0  0  0  0  0  0  0
   -1.7231   -4.5311    0.9319 H   0  0  0  0  0  0  0  0  0  0  0  0
   -1.7516   -4.5419   -0.8478 H   0  0  0  0  0  0  0  0  0  0  0  0
   -4.4518   -0.2915    0.0604 H   0  0  0  0  0  0  0  0  0  0  0  0
   -3.5843   -1.5609   -0.8364 H   0  0  0  0  0  0  0  0  0  0  0  0
   -3.5555   -1.5507    0.9433 H   0  0  0  0  0  0  0  0  0  0  0  0
    8.9952   -3.7848   -0.2852 O   0  5  0  0  0  0  0  0  0  0  0  0
  1  2  1  0  0  0  0
  1 28  1  0  0  0  0
  1 29  1  0  0  0  0
  1 30  1  0  0  0  0
  2  3  1  0  0  0  0
  2 31  1  0  0  0  0
  2 32  1  0  0  0  0
  3  4  1  0  0  0  0
  3 33  1  0  0  0  0
  3 34  1  0  0  0  0
  4  5  1  0  0  0  0
  4  6  1  0  0  0  0
  4  8  1  0  0  0  0
  6  7  2  0  0  0  0
  6 48  1  0  0  0  0
  8  9  1  0  0  0  0
  8 35  1  0  0  0  0
  9 13  1  0  0  0  0
  9 10  2  0  0  0  0
 10 11  1  0  0  0  0
 11 12  2  0  0  0  0
 11 14  1  0  0  0  0
 12 13  1  0  0  0  0
 12 36  1  0  0  0  0
 14 23  2  0  0  0  0
 14 15  1  0  0  0  0
 15 20  2  0  0  0  0
 15 16  1  0  0  0  0
 16 17  2  0  0  0  0
 16 37  1  0  0  0  0
 17 18  1  0  0  0  0
 17 38  1  0  0  0  0
 18 19  2  0  0  0  0
 18 39  1  0  0  0  0
 19 20  1  0  0  0  0
 19 40  1  0  0  0  0
 20 21  1  0  0  0  0
 21 22  2  0  0  0  0
 21 26  1  0  0  0  0
 22 23  1  0  0  0  0
 22 41  1  0  0  0  0
 23 24  1  0  0  0  0
 24 25  1  0  0  0  0
 25 42  1  0  0  0  0
 25 43  1  0  0  0  0
 25 44  1  0  0  0  0
 26 27  1  0  0  0  0
 27 45  1  0  0  0  0
 27 46  1  0  0  0  0
 27 47  1  0  0  0  0
M  CHG  1  48  -1
M  END
$$$$
ZINC03856967
  -OEChem-08230709463D

 48 50  0     1  0  0  0  0  0999 V2000
    9.6251   -1.0366   -1.8918 C   0  0  0  0  0  0  0  0  0  0  0  0
    8.4110   -1.7877   -1.3418 C   0  0  0  0  0  0  0  0  0  0  0  0
    8.1501   -3.0301   -2.1958 C   0  0  0  0  0  0  0  0  0  0  0  0
    6.9359   -3.7813   -1.6458 C   0  0  2  0  0  0  0  0  0  0  0  0
    7.0941   -4.0045   -0.5907 H   0  0  0  0  0  0  0  0  0  0  0  0
    6.7527   -5.0675   -2.4094 C   0  0  0  0  0  0  0  0  0  0  0  0
    5.7274   -5.2692   -3.0160 O   0  0  0  0  0  0  0  0  0  0  0  0
    5.7388   -2.9501   -1.7949 N   0  0  0  0  0  0  0  0  0  0  0  0
    4.6545   -3.1400   -0.9538 C   0  0  0  0  0  0  0  0  0  0  0  0
    3.4961   -2.5065   -0.9291 N   0  0  0  0  0  0  0  0  0  0  0  0
    2.5585   -2.8211   -0.0376 C   0  0  0  0  0  0  0  0  0  0  0  0
    2.7985   -3.8252    0.8586 C   0  0  0  0  0  0  0  0  0  0  0  0
    4.4508   -4.3121    0.3799 S   0  0  0  0  0  0  0  0  0  0  0  0
    1.2677   -2.0955   -0.0208 C   0  0  0  0  0  0  0  0  0  0  0  0
    1.2454   -0.6809   -0.0291 C   0  0  0  0  0  0  0  0  0  0  0  0
    2.4346    0.0630   -0.0522 C   0  0  0  0  0  0  0  0  0  0  0  0
    2.3791    1.4239   -0.0591 C   0  0  0  0  0  0  0  0  0  0  0  0
    1.1560    2.0906   -0.0436 C   0  0  0  0  0  0  0  0  0  0  0  0
   -0.0174    1.4002   -0.0211 C   0  0  0  0  0  0  0  0  0  0  0  0
    0.0019   -0.0041   -0.0133 C   0  0  0  0  0  0  0  0  0  0  0  0
   -1.1961   -0.7488    0.0104 C   0  0  0  0  0  0  0  0  0  0  0  0
   -1.1496   -2.1239    0.0175 C   0  0  0  0  0  0  0  0  0  0  0  0
    0.0703   -2.7986    0.0026 C   0  0  0  0  0  0  0  0  0  0  0  0
    0.0879   -4.1572    0.0106 O   0  0  0  0  0  0  0  0  0  0  0  0
   -1.1767   -4.8222    0.0349 C   0  0  0  0  0  0  0  0  0  0  0  0
   -2.3941   -0.1090    0.0252 O   0  0  0  0  0  0  0  0  0  0  0  0
   -3.5659   -0.9265    0.0489 C   0  0  0  0  0  0  0  0  0  0  0  0
    9.8110   -0.1515   -1.2834 H   0  0  0  0  0  0  0  0  0  0  0  0
   10.4989   -1.6875   -1.8626 H   0  0  0  0  0  0  0  0  0  0  0  0
    9.4305   -0.7356   -2.9211 H   0  0  0  0  0  0  0  0  0  0  0  0
    7.5372   -1.1368   -1.3709 H   0  0  0  0  0  0  0  0  0  0  0  0
    8.6056   -2.0887   -0.3124 H   0  0  0  0  0  0  0  0  0  0  0  0
    9.0238   -3.6811   -2.1666 H   0  0  0  0  0  0  0  0  0  0  0  0
    7.9554   -2.7291   -3.2251 H   0  0  0  0  0  0  0  0  0  0  0  0
    5.7053   -2.2668   -2.4825 H   0  0  0  0  0  0  0  0  0  0  0  0
    2.1647   -4.2164    1.6406 H   0  0  0  0  0  0  0  0  0  0  0  0
    3.3897   -0.4410   -0.0648 H   0  0  0  0  0  0  0  0  0  0  0  0
    3.2962    1.9941   -0.0772 H   0  0  0  0  0  0  0  0  0  0  0  0
    1.1382    3.1705   -0.0499 H   0  0  0  0  0  0  0  0  0  0  0  0
   -0.9585    1.9299   -0.0138 H   0  0  0  0  0  0  0  0  0  0  0  0
   -2.0703   -2.6881    0.0353 H   0  0  0  0  0  0  0  0  0  0  0  0
   -1.0199   -5.9009    0.0390 H   0  0  0  0  0  0  0  0  0  0  0  0
   -1.7231   -4.5311    0.9320 H   0  0  0  0  0  0  0  0  0  0  0  0
   -1.7516   -4.5420   -0.8477 H   0  0  0  0  0  0  0  0  0  0  0  0
   -3.5839   -1.5615   -0.8368 H   0  0  0  0  0  0  0  0  0  0  0  0
   -3.5558   -1.5501    0.9429 H   0  0  0  0  0  0  0  0  0  0  0  0
   -4.4518   -0.2916    0.0588 H   0  0  0  0  0  0  0  0  0  0  0  0
    7.7286   -5.9891   -2.4158 O   0  5  0  0  0  0  0  0  0  0  0  0
  1  2  1  0  0  0  0
  1 28  1  0  0  0  0
  1 29  1  0  0  0  0
  1 30  1  0  0  0  0
  2  3  1  0  0  0  0
  2 31  1  0  0  0  0
  2 32  1  0  0  0  0
  3  4  1  0  0  0  0
  3 33  1  0  0  0  0
  3 34  1  0  0  0  0
  4  5  1  0  0  0  0
  4  6  1  0  0  0  0
  4  8  1  0  0  0  0
  6  7  2  0  0  0  0
  6 48  1  0  0  0  0
  8  9  1  0  0  0  0
  8 35  1  0  0  0  0
  9 13  1  0  0  0  0
  9 10  2  0  0  0  0
 10 11  1  0  0  0  0
 11 12  2  0  0  0  0
 11 14  1  0  0  0  0
 12 13  1  0  0  0  0
 12 36  1  0  0  0  0
 14 23  2  0  0  0  0
 14 15  1  0  0  0  0
 15 20  2  0  0  0  0
 15 16  1  0  0  0  0
 16 17  2  0  0  0  0
 16 37  1  0  0  0  0
 17 18  1  0  0  0  0
 17 38  1  0  0  0  0
 18 19  2  0  0  0  0
 18 39  1  0  0  0  0
 19 20  1  0  0  0  0
 19 40  1  0  0  0  0
 20 21  1  0  0  0  0
 21 22  2  0  0  0  0
 21 26  1  0  0  0  0
 22 23  1  0  0  0  0
 22 41  1  0  0  0  0
 23 24  1  0  0  0  0
 24 25  1  0  0  0  0
 25 42  1  0  0  0  0
 25 43  1  0  0  0  0
 25 44  1  0  0  0  0
 26 27  1  0  0  0  0
 27 45  1  0  0  0  0
 27 46  1  0  0  0  0
 27 47  1  0  0  0  0
M  CHG  1  48  -1
M  END
$$$$
ZINC03856969
  -OEChem-08230709463D

 54 55  0     1  0  0  0  0  0999 V2000
   -0.0187    1.5258    0.0104 C   0  0  0  0  0  0  0  0  0  0  0  0
    0.0021   -0.0041    0.0020 C   0  0  0  0  0  0  0  0  0  0  0  0
   -1.3386   -0.4987    0.0122 O   0  0  0  0  0  0  0  0  0  0  0  0
   -1.4984   -1.8491    0.0064 C   0  0  0  0  0  0  0  0  0  0  0  0
   -0.3878   -2.6766   -0.0086 C   0  0  0  0  0  0  0  0  0  0  0  0
   -0.5532   -4.0594   -0.0140 C   0  0  0  0  0  0  0  0  0  0  0  0
   -1.8408   -4.6044   -0.0042 C   0  0  0  0  0  0  0  0  0  0  0  0
   -2.9437   -3.7677    0.0109 C   0  0  0  0  0  0  0  0  0  0  0  0
   -2.7738   -2.3955    0.0215 C   0  0  0  0  0  0  0  0  0  0  0  0
   -3.9782   -1.4900    0.0441 C   0  0  0  0  0  0  0  0  0  0  0  0
   -5.2525   -2.3367    0.0574 C   0  0  0  0  0  0  0  0  0  0  0  0
   -3.9345   -0.6145    1.2981 C   0  0  0  0  0  0  0  0  0  0  0  0
   -3.9703   -0.5997   -1.2001 C   0  0  0  0  0  0  0  0  0  0  0  0
   -2.0094   -5.9535   -0.0089 O   0  0  0  0  0  0  0  0  0  0  0  0
   -3.3532   -6.4394    0.0018 C   0  0  0  0  0  0  0  0  0  0  0  0
   -3.3425   -7.9694   -0.0056 C   0  0  0  0  0  0  0  0  0  0  0  0
    0.6321   -4.9506   -0.0306 C   0  0  0  0  0  0  0  0  0  0  0  0
    1.8919   -4.4232   -0.0459 C   0  0  0  0  0  0  0  0  0  0  0  0
    2.8779   -5.9145   -0.0590 S   0  0  0  0  0  0  0  0  0  0  0  0
    1.5237   -7.0806   -0.0515 C   0  0  0  0  0  0  0  0  0  0  0  0
    0.4792   -6.2729   -0.0363 N   0  0  0  0  0  0  0  0  0  0  0  0
    1.5601   -8.4656   -0.0591 N   0  0  0  0  0  0  0  0  0  0  0  0
    2.8476   -9.1644   -0.0763 C   0  0  1  0  0  0  0  0  0  0  0  0
    3.5623   -8.5948   -0.6703 H   0  0  0  0  0  0  0  0  0  0  0  0
    3.3709   -9.3047    1.3546 C   0  0  0  0  0  0  0  0  0  0  0  0
    2.6685  -10.5326   -0.6820 C   0  0  0  0  0  0  0  0  0  0  0  0
    1.5773  -10.8876   -1.0605 O   0  0  0  0  0  0  0  0  0  0  0  0
    1.0039    1.9031    0.0027 H   0  0  0  0  0  0  0  0  0  0  0  0
   -0.5459    1.8868   -0.8726 H   0  0  0  0  0  0  0  0  0  0  0  0
   -0.5289    1.8773    0.9072 H   0  0  0  0  0  0  0  0  0  0  0  0
    0.5123   -0.3556   -0.8948 H   0  0  0  0  0  0  0  0  0  0  0  0
    0.5293   -0.3651    0.8851 H   0  0  0  0  0  0  0  0  0  0  0  0
    0.6045   -2.2503   -0.0158 H   0  0  0  0  0  0  0  0  0  0  0  0
   -3.9387   -4.1876    0.0181 H   0  0  0  0  0  0  0  0  0  0  0  0
   -5.2581   -2.9710    0.9438 H   0  0  0  0  0  0  0  0  0  0  0  0
   -6.1237   -1.6817    0.0737 H   0  0  0  0  0  0  0  0  0  0  0  0
   -5.2836   -2.9604   -0.8360 H   0  0  0  0  0  0  0  0  0  0  0  0
   -3.0266   -0.0114    1.2886 H   0  0  0  0  0  0  0  0  0  0  0  0
   -4.8057    0.0404    1.3144 H   0  0  0  0  0  0  0  0  0  0  0  0
   -3.9401   -1.2488    2.1845 H   0  0  0  0  0  0  0  0  0  0  0  0
   -4.0014   -1.2234   -2.0935 H   0  0  0  0  0  0  0  0  0  0  0  0
   -4.8415    0.0553   -1.1837 H   0  0  0  0  0  0  0  0  0  0  0  0
   -3.0624    0.0035   -1.2095 H   0  0  0  0  0  0  0  0  0  0  0  0
   -3.8610   -6.0839    0.8983 H   0  0  0  0  0  0  0  0  0  0  0  0
   -3.8782   -6.0755   -0.8815 H   0  0  0  0  0  0  0  0  0  0  0  0
   -2.8347   -8.3248   -0.9022 H   0  0  0  0  0  0  0  0  0  0  0  0
   -2.8175   -8.3332    0.8777 H   0  0  0  0  0  0  0  0  0  0  0  0
   -4.3675   -8.3400    0.0026 H   0  0  0  0  0  0  0  0  0  0  0  0
    2.2059   -3.3899   -0.0480 H   0  0  0  0  0  0  0  0  0  0  0  0
    0.7332   -8.9726   -0.0530 H   0  0  0  0  0  0  0  0  0  0  0  0
    2.6562   -9.8743    1.9486 H   0  0  0  0  0  0  0  0  0  0  0  0
    4.3288   -9.8246    1.3418 H   0  0  0  0  0  0  0  0  0  0  0  0
    3.5004   -8.3150    1.7927 H   0  0  0  0  0  0  0  0  0  0  0  0
    3.7211  -11.3569   -0.8010 O   0  5  0  0  0  0  0  0  0  0  0  0
  1  2  1  0  0  0  0
  1 28  1  0  0  0  0
  1 29  1  0  0  0  0
  1 30  1  0  0  0  0
  2  3  1  0  0  0  0
  2 31  1  0  0  0  0
  2 32  1  0  0  0  0
  3  4  1  0  0  0  0
  4  9  2  0  0  0  0
  4  5  1  0  0  0  0
  5  6  2  0  0  0  0
  5 33  1  0  0  0  0
  6  7  1  0  0  0  0
  6 17  1  0  0  0  0
  7  8  2  0  0  0  0
  7 14  1  0  0  0  0
  8  9  1  0  0  0  0
  8 34  1  0  0  0  0
  9 10  1  0  0  0  0
 10 11  1  0  0  0  0
 10 12  1  0  0  0  0
 10 13  1  0  0  0  0
 11 35  1  0  0  0  0
 11 36  1  0  0  0  0
 11 37  1  0  0  0  0
 12 38  1  0  0  0  0
 12 39  1  0  0  0  0
 12 40  1  0  0  0  0
 13 41  1  0  0  0  0
 13 42  1  0  0  0  0
 13 43  1  0  0  0  0
 14 15  1  0  0  0  0
 15 16  1  0  0  0  0
 15 44  1  0  0  0  0
 15 45  1  0  0  0  0
 16 46  1  0  0  0  0
 16 47  1  0  0  0  0
 16 48  1  0  0  0  0
 17 21  1  0  0  0  0
 17 18  2  0  0  0  0
 18 19  1  0  0  0  0
 18 49  1  0  0  0  0
 19 20  1  0  0  0  0
 20 21  2  0  0  0  0
 20 22  1  0  0  0  0
 22 23  1  0  0  0  0
 22 50  1  0  0  0  0
 23 24  1  0  0  0  0
 23 25  1  0  0  0  0
 23 26  1  0  0  0  0
 25 51  1  0  0  0  0
 25 52  1  0  0  0  0
 25 53  1  0  0  0  0
 26 27  2  0  0  0  0
 26 54  1  0  0  0  0
M  CHG  1  54  -1
M  END
$$$$
ZINC03856970
  -OEChem-08230709463D

 54 55  0     1  0  0  0  0  0999 V2000
   -0.0187    1.5258    0.0104 C   0  0  0  0  0  0  0  0  0  0  0  0
    0.0021   -0.0041    0.0020 C   0  0  0  0  0  0  0  0  0  0  0  0
   -1.3386   -0.4987    0.0122 O   0  0  0  0  0  0  0  0  0  0  0  0
   -1.4984   -1.8491    0.0064 C   0  0  0  0  0  0  0  0  0  0  0  0
   -0.3878   -2.6766   -0.0086 C   0  0  0  0  0  0  0  0  0  0  0  0
   -0.5532   -4.0594   -0.0145 C   0  0  0  0  0  0  0  0  0  0  0  0
   -1.8408   -4.6043   -0.0051 C   0  0  0  0  0  0  0  0  0  0  0  0
   -2.9437   -3.7677    0.0099 C   0  0  0  0  0  0  0  0  0  0  0  0
   -2.7738   -2.3955    0.0214 C   0  0  0  0  0  0  0  0  0  0  0  0
   -3.9782   -1.4900    0.0440 C   0  0  0  0  0  0  0  0  0  0  0  0
   -5.2525   -2.3367    0.0571 C   0  0  0  0  0  0  0  0  0  0  0  0
   -3.9346   -0.6145    1.2979 C   0  0  0  0  0  0  0  0  0  0  0  0
   -3.9702   -0.5997   -1.2003 C   0  0  0  0  0  0  0  0  0  0  0  0
   -2.0094   -5.9535   -0.0103 O   0  0  0  0  0  0  0  0  0  0  0  0
   -3.3533   -6.4394   -0.0001 C   0  0  0  0  0  0  0  0  0  0  0  0
   -3.3425   -7.9693   -0.0079 C   0  0  0  0  0  0  0  0  0  0  0  0
    0.6321   -4.9506   -0.0311 C   0  0  0  0  0  0  0  0  0  0  0  0
    1.8919   -4.4232   -0.0459 C   0  0  0  0  0  0  0  0  0  0  0  0
    2.8780   -5.9145   -0.0582 S   0  0  0  0  0  0  0  0  0  0  0  0
    1.5237   -7.0806   -0.0519 C   0  0  0  0  0  0  0  0  0  0  0  0
    0.4792   -6.2729   -0.0372 N   0  0  0  0  0  0  0  0  0  0  0  0
    1.5601   -8.4656   -0.0602 N   0  0  0  0  0  0  0  0  0  0  0  0
    2.8476   -9.1644   -0.0766 C   0  0  2  0  0  0  0  0  0  0  0  0
    3.5742   -8.6012    0.5091 H   0  0  0  0  0  0  0  0  0  0  0  0
    3.3419   -9.2889   -1.5192 C   0  0  0  0  0  0  0  0  0  0  0  0
    2.6806  -10.5392    0.5176 C   0  0  0  0  0  0  0  0  0  0  0  0
    1.5972  -10.8984    0.9141 O   0  0  0  0  0  0  0  0  0  0  0  0
    1.0039    1.9031    0.0027 H   0  0  0  0  0  0  0  0  0  0  0  0
   -0.5459    1.8868   -0.8726 H   0  0  0  0  0  0  0  0  0  0  0  0
   -0.5289    1.8773    0.9072 H   0  0  0  0  0  0  0  0  0  0  0  0
    0.5123   -0.3556   -0.8948 H   0  0  0  0  0  0  0  0  0  0  0  0
    0.5293   -0.3651    0.8851 H   0  0  0  0  0  0  0  0  0  0  0  0
    0.6045   -2.2503   -0.0154 H   0  0  0  0  0  0  0  0  0  0  0  0
   -3.9387   -4.1876    0.0172 H   0  0  0  0  0  0  0  0  0  0  0  0
   -5.2582   -2.9710    0.9435 H   0  0  0  0  0  0  0  0  0  0  0  0
   -6.1237   -1.6817    0.0735 H   0  0  0  0  0  0  0  0  0  0  0  0
   -5.2836   -2.9604   -0.8362 H   0  0  0  0  0  0  0  0  0  0  0  0
   -3.0267   -0.0113    1.2885 H   0  0  0  0  0  0  0  0  0  0  0  0
   -4.8057    0.0404    1.3142 H   0  0  0  0  0  0  0  0  0  0  0  0
   -3.9402   -1.2488    2.1843 H   0  0  0  0  0  0  0  0  0  0  0  0
   -4.0013   -1.2234   -2.0936 H   0  0  0  0  0  0  0  0  0  0  0  0
   -4.8414    0.0552   -1.1839 H   0  0  0  0  0  0  0  0  0  0  0  0
   -3.0624    0.0035   -1.2096 H   0  0  0  0  0  0  0  0  0  0  0  0
   -3.8612   -6.0842    0.8965 H   0  0  0  0  0  0  0  0  0  0  0  0
   -3.8780   -6.0753   -0.8834 H   0  0  0  0  0  0  0  0  0  0  0  0
   -2.8177   -8.3335    0.8754 H   0  0  0  0  0  0  0  0  0  0  0  0
   -4.3675   -8.3400   -0.0001 H   0  0  0  0  0  0  0  0  0  0  0  0
   -2.8345   -8.3246   -0.9045 H   0  0  0  0  0  0  0  0  0  0  0  0
    2.2059   -3.3899   -0.0483 H   0  0  0  0  0  0  0  0  0  0  0  0
    0.7332   -8.9725   -0.0552 H   0  0  0  0  0  0  0  0  0  0  0  0
    3.4628   -8.2945   -1.9490 H   0  0  0  0  0  0  0  0  0  0  0  0
    4.2999   -9.8088   -1.5314 H   0  0  0  0  0  0  0  0  0  0  0  0
    2.6154   -9.8521   -2.1049 H   0  0  0  0  0  0  0  0  0  0  0  0
    3.7353  -11.3647    0.6063 O   0  5  0  0  0  0  0  0  0  0  0  0
  1  2  1  0  0  0  0
  1 28  1  0  0  0  0
  1 29  1  0  0  0  0
  1 30  1  0  0  0  0
  2  3  1  0  0  0  0
  2 31  1  0  0  0  0
  2 32  1  0  0  0  0
  3  4  1  0  0  0  0
  4  9  2  0  0  0  0
  4  5  1  0  0  0  0
  5  6  2  0  0  0  0
  5 33  1  0  0  0  0
  6  7  1  0  0  0  0
  6 17  1  0  0  0  0
  7  8  2  0  0  0  0
  7 14  1  0  0  0  0
  8  9  1  0  0  0  0
  8 34  1  0  0  0  0
  9 10  1  0  0  0  0
 10 11  1  0  0  0  0
 10 12  1  0  0  0  0
 10 13  1  0  0  0  0
 11 35  1  0  0  0  0
 11 36  1  0  0  0  0
 11 37  1  0  0  0  0
 12 38  1  0  0  0  0
 12 39  1  0  0  0  0
 12 40  1  0  0  0  0
 13 41  1  0  0  0  0
 13 42  1  0  0  0  0
 13 43  1  0  0  0  0
 14 15  1  0  0  0  0
 15 16  1  0  0  0  0
 15 44  1  0  0  0  0
 15 45  1  0  0  0  0
 16 46  1  0  0  0  0
 16 47  1  0  0  0  0
 16 48  1  0  0  0  0
 17 21  1  0  0  0  0
 17 18  2  0  0  0  0
 18 19  1  0  0  0  0
 18 49  1  0  0  0  0
 19 20  1  0  0  0  0
 20 21  2  0  0  0  0
 20 22  1  0  0  0  0
 22 23  1  0  0  0  0
 22 50  1  0  0  0  0
 23 24  1  0  0  0  0
 23 25  1  0  0  0  0
 23 26  1  0  0  0  0
 25 51  1  0  0  0  0
 25 52  1  0  0  0  0
 25 53  1  0  0  0  0
 26 27  2  0  0  0  0
 26 54  1  0  0  0  0
M  CHG  1  54  -1
M  END
$$$$
ZINC03856971
  -OEChem-08230709463D

 51 52  0     0  0  0  0  0  0999 V2000
   -0.0187    1.5258    0.0104 C   0  0  0  0  0  0  0  0  0  0  0  0
    0.0021   -0.0041    0.0020 C   0  0  0  0  0  0  0  0  0  0  0  0
    0.6709   -0.4649   -1.1737 O   0  0  0  0  0  0  0  0  0  0  0  0
    0.7768   -1.8108   -1.3362 C   0  0  0  0  0  0  0  0  0  0  0  0
    0.2478   -2.6659   -0.3837 C   0  0  0  0  0  0  0  0  0  0  0  0
    0.3570   -4.0441   -0.5516 C   0  0  0  0  0  0  0  0  0  0  0  0
    1.0008   -4.5566   -1.6820 C   0  0  0  0  0  0  0  0  0  0  0  0
    1.5259   -3.6925   -2.6277 C   0  0  0  0  0  0  0  0  0  0  0  0
    1.4097   -2.3251   -2.4589 C   0  0  0  0  0  0  0  0  0  0  0  0
    1.9779   -1.3898   -3.4949 C   0  0  0  0  0  0  0  0  0  0  0  0
    2.6165   -2.2042   -4.6217 C   0  0  0  0  0  0  0  0  0  0  0  0
    0.8565   -0.5200   -4.0665 C   0  0  0  0  0  0  0  0  0  0  0  0
    3.0376   -0.4956   -2.8481 C   0  0  0  0  0  0  0  0  0  0  0  0
    1.1106   -5.9011   -1.8524 O   0  0  0  0  0  0  0  0  0  0  0  0
    1.7809   -6.3531   -3.0307 C   0  0  0  0  0  0  0  0  0  0  0  0
    1.8061   -7.8828   -3.0481 C   0  0  0  0  0  0  0  0  0  0  0  0
   -0.2070   -4.9647    0.4651 C   0  0  0  0  0  0  0  0  0  0  0  0
   -0.8365   -4.4691    1.5713 C   0  0  0  0  0  0  0  0  0  0  0  0
   -1.2911   -5.9846    2.4038 S   0  0  0  0  0  0  0  0  0  0  0  0
   -0.6026   -7.1164    1.2042 C   0  0  0  0  0  0  0  0  0  0  0  0
   -0.1100   -6.2828    0.3064 N   0  0  0  0  0  0  0  0  0  0  0  0
   -0.5934   -8.5018    1.2114 N   0  0  0  0  0  0  0  0  0  0  0  0
   -1.2123   -9.2326    2.3201 C   0  0  0  0  0  0  0  0  0  0  0  0
   -1.0671  -10.7146    2.0880 C   0  0  0  0  0  0  0  0  0  0  0  0
   -0.5045  -11.1188    1.0980 O   0  0  0  0  0  0  0  0  0  0  0  0
    1.0039    1.9031    0.0027 H   0  0  0  0  0  0  0  0  0  0  0  0
   -0.5459    1.8868   -0.8726 H   0  0  0  0  0  0  0  0  0  0  0  0
   -0.5289    1.8773    0.9072 H   0  0  0  0  0  0  0  0  0  0  0  0
    0.5293   -0.3651    0.8851 H   0  0  0  0  0  0  0  0  0  0  0  0
   -1.0205   -0.3814    0.0098 H   0  0  0  0  0  0  0  0  0  0  0  0
   -0.2488   -2.2647    0.4874 H   0  0  0  0  0  0  0  0  0  0  0  0
    2.0234   -4.0874   -3.5012 H   0  0  0  0  0  0  0  0  0  0  0  0
    1.8616   -2.8413   -5.0825 H   0  0  0  0  0  0  0  0  0  0  0  0
    3.0275   -1.5277   -5.3711 H   0  0  0  0  0  0  0  0  0  0  0  0
    3.4154   -2.8239   -4.2145 H   0  0  0  0  0  0  0  0  0  0  0  0
    0.4016    0.0602   -3.2637 H   0  0  0  0  0  0  0  0  0  0  0  0
    1.2675    0.1565   -4.8159 H   0  0  0  0  0  0  0  0  0  0  0  0
    0.1016   -1.1571   -4.5273 H   0  0  0  0  0  0  0  0  0  0  0  0
    3.8366   -1.1152   -2.4409 H   0  0  0  0  0  0  0  0  0  0  0  0
    3.4486    0.1809   -3.5975 H   0  0  0  0  0  0  0  0  0  0  0  0
    2.5827    0.0846   -2.0453 H   0  0  0  0  0  0  0  0  0  0  0  0
    1.2527   -5.9884   -3.9117 H   0  0  0  0  0  0  0  0  0  0  0  0
    2.8024   -5.9728   -3.0362 H   0  0  0  0  0  0  0  0  0  0  0  0
    2.3342   -8.2475   -2.1671 H   0  0  0  0  0  0  0  0  0  0  0  0
    0.7846   -8.2631   -3.0426 H   0  0  0  0  0  0  0  0  0  0  0  0
    2.3173   -8.2276   -3.9469 H   0  0  0  0  0  0  0  0  0  0  0  0
   -1.0117   -3.4440    1.8627 H   0  0  0  0  0  0  0  0  0  0  0  0
   -0.1773   -8.9878    0.4824 H   0  0  0  0  0  0  0  0  0  0  0  0
   -0.7200   -8.9612    3.2539 H   0  0  0  0  0  0  0  0  0  0  0  0
   -2.2700   -8.9760    2.3790 H   0  0  0  0  0  0  0  0  0  0  0  0
   -1.5629  -11.5855    2.9810 O   0  5  0  0  0  0  0  0  0  0  0  0
  1  2  1  0  0  0  0
  1 26  1  0  0  0  0
  1 27  1  0  0  0  0
  1 28  1  0  0  0  0
  2  3  1  0  0  0  0
  2 29  1  0  0  0  0
  2 30  1  0  0  0  0
  3  4  1  0  0  0  0
  4  9  2  0  0  0  0
  4  5  1  0  0  0  0
  5  6  2  0  0  0  0
  5 31  1  0  0  0  0
  6  7  1  0  0  0  0
  6 17  1  0  0  0  0
  7  8  2  0  0  0  0
  7 14  1  0  0  0  0
  8  9  1  0  0  0  0
  8 32  1  0  0  0  0
  9 10  1  0  0  0  0
 10 11  1  0  0  0  0
 10 12  1  0  0  0  0
 10 13  1  0  0  0  0
 11 33  1  0  0  0  0
 11 34  1  0  0  0  0
 11 35  1  0  0  0  0
 12 36  1  0  0  0  0
 12 37  1  0  0  0  0
 12 38  1  0  0  0  0
 13 39  1  0  0  0  0
 13 40  1  0  0  0  0
 13 41  1  0  0  0  0
 14 15  1  0  0  0  0
 15 16  1  0  0  0  0
 15 42  1  0  0  0  0
 15 43  1  0  0  0  0
 16 44  1  0  0  0  0
 16 45  1  0  0  0  0
 16 46  1  0  0  0  0
 17 21  1  0  0  0  0
 17 18  2  0  0  0  0
 18 19  1  0  0  0  0
 18 47  1  0  0  0  0
 19 20  1  0  0  0  0
 20 21  2  0  0  0  0
 20 22  1  0  0  0  0
 22 23  1  0  0  0  0
 22 48  1  0  0  0  0
 23 24  1  0  0  0  0
 23 49  1  0  0  0  0
 23 50  1  0  0  0  0
 24 25  2  0  0  0  0
 24 51  1  0  0  0  0
M  CHG  1  51  -1
M  END
$$$$
ZINC03856972
  -OEChem-08230709463D

 54 55  0     1  0  0  0  0  0999 V2000
   -3.3800   -2.6894    0.3072 C   0  0  0  0  0  0  0  0  0  0  0  0
   -3.3680   -1.4447   -0.5824 C   0  0  0  0  0  0  0  0  0  0  0  0
   -4.7843   -0.8743   -0.6806 C   0  0  0  0  0  0  0  0  0  0  0  0
   -2.4358   -0.3937    0.0235 C   0  0  1  0  0  0  0  0  0  0  0  0
   -2.4950    0.5246   -0.5607 H   0  0  0  0  0  0  0  0  0  0  0  0
   -2.8518   -0.1127    1.4444 C   0  0  0  0  0  0  0  0  0  0  0  0
   -2.0779   -0.3106    2.3509 O   0  0  0  0  0  0  0  0  0  0  0  0
   -1.0592   -0.8947    0.0078 N   0  0  0  0  0  0  0  0  0  0  0  0
    0.0021   -0.0041    0.0020 C   0  0  0  0  0  0  0  0  0  0  0  0
    1.2992   -0.2509   -0.0117 N   0  0  0  0  0  0  0  0  0  0  0  0
    2.1881    0.7399   -0.0149 C   0  0  0  0  0  0  0  0  0  0  0  0
    1.7481    2.0329   -0.0037 C   0  0  0  0  0  0  0  0  0  0  0  0
   -0.0222    1.7829    0.0118 S   0  0  0  0  0  0  0  0  0  0  0  0
    3.6410    0.4430   -0.0308 C   0  0  0  0  0  0  0  0  0  0  0  0
    4.5671    1.4836   -0.0403 C   0  0  0  0  0  0  0  0  0  0  0  0
    5.9225    1.2004   -0.0485 C   0  0  0  0  0  0  0  0  0  0  0  0
    6.3587   -0.1172   -0.0601 C   0  0  0  0  0  0  0  0  0  0  0  0
    5.4441   -1.1535   -0.0570 C   0  0  0  0  0  0  0  0  0  0  0  0
    4.0861   -0.8820   -0.0421 C   0  0  0  0  0  0  0  0  0  0  0  0
    3.1876   -1.9024   -0.0390 O   0  0  0  0  0  0  0  0  0  0  0  0
    3.7143   -3.2308   -0.0511 C   0  0  0  0  0  0  0  0  0  0  0  0
    7.8351   -0.4190   -0.0758 C   0  0  0  0  0  0  0  0  0  0  0  0
    8.0457   -1.9344   -0.0859 C   0  0  0  0  0  0  0  0  0  0  0  0
    8.4673    0.1921   -1.3279 C   0  0  0  0  0  0  0  0  0  0  0  0
    8.4911    0.1788    1.1705 C   0  0  0  0  0  0  0  0  0  0  0  0
    6.8278    2.2151   -0.0512 O   0  0  0  0  0  0  0  0  0  0  0  0
    6.3097    3.5468   -0.0387 C   0  0  0  0  0  0  0  0  0  0  0  0
   -2.3710   -3.0958    0.3772 H   0  0  0  0  0  0  0  0  0  0  0  0
   -3.7335   -2.4210    1.3028 H   0  0  0  0  0  0  0  0  0  0  0  0
   -4.0441   -3.4382   -0.1245 H   0  0  0  0  0  0  0  0  0  0  0  0
   -3.0146   -1.7131   -1.5780 H   0  0  0  0  0  0  0  0  0  0  0  0
   -4.7757    0.0124   -1.3145 H   0  0  0  0  0  0  0  0  0  0  0  0
   -5.4484   -1.6231   -1.1124 H   0  0  0  0  0  0  0  0  0  0  0  0
   -5.1377   -0.6059    0.3149 H   0  0  0  0  0  0  0  0  0  0  0  0
   -0.8908   -1.8499    0.0013 H   0  0  0  0  0  0  0  0  0  0  0  0
    2.3137    2.9529   -0.0042 H   0  0  0  0  0  0  0  0  0  0  0  0
    4.2286    2.5092   -0.0365 H   0  0  0  0  0  0  0  0  0  0  0  0
    5.7890   -2.1769   -0.0657 H   0  0  0  0  0  0  0  0  0  0  0  0
    2.8930   -3.9474   -0.0471 H   0  0  0  0  0  0  0  0  0  0  0  0
    4.3174   -3.3743   -0.9477 H   0  0  0  0  0  0  0  0  0  0  0  0
    4.3344   -3.3838    0.8322 H   0  0  0  0  0  0  0  0  0  0  0  0
    7.5784   -2.3603   -0.9738 H   0  0  0  0  0  0  0  0  0  0  0  0
    9.1136   -2.1528   -0.0972 H   0  0  0  0  0  0  0  0  0  0  0  0
    7.5953   -2.3698    0.8061 H   0  0  0  0  0  0  0  0  0  0  0  0
    8.3173    1.2717   -1.3207 H   0  0  0  0  0  0  0  0  0  0  0  0
    9.5352   -0.0262   -1.3392 H   0  0  0  0  0  0  0  0  0  0  0  0
    8.0000   -0.2338   -2.2157 H   0  0  0  0  0  0  0  0  0  0  0  0
    8.0407   -0.2566    2.0625 H   0  0  0  0  0  0  0  0  0  0  0  0
    9.5590   -0.0396    1.1591 H   0  0  0  0  0  0  0  0  0  0  0  0
    8.3411    1.2584    1.1777 H   0  0  0  0  0  0  0  0  0  0  0  0
    5.6908    3.7042   -0.9220 H   0  0  0  0  0  0  0  0  0  0  0  0
    5.7076    3.6940    0.8578 H   0  0  0  0  0  0  0  0  0  0  0  0
    7.1357    4.2581   -0.0425 H   0  0  0  0  0  0  0  0  0  0  0  0
   -4.0822    0.3575    1.7030 O   0  5  0  0  0  0  0  0  0  0  0  0
  1  2  1  0  0  0  0
  1 28  1  0  0  0  0
  1 29  1  0  0  0  0
  1 30  1  0  0  0  0
  2  3  1  0  0  0  0
  2  4  1  0  0  0  0
  2 31  1  0  0  0  0
  3 32  1  0  0  0  0
  3 33  1  0  0  0  0
  3 34  1  0  0  0  0
  4  5  1  0  0  0  0
  4  6  1  0  0  0  0
  4  8  1  0  0  0  0
  6  7  2  0  0  0  0
  6 54  1  0  0  0  0
  8  9  1  0  0  0  0
  8 35  1  0  0  0  0
  9 13  1  0  0  0  0
  9 10  2  0  0  0  0
 10 11  1  0  0  0  0
 11 12  2  0  0  0  0
 11 14  1  0  0  0  0
 12 13  1  0  0  0  0
 12 36  1  0  0  0  0
 14 19  2  0  0  0  0
 14 15  1  0  0  0  0
 15 16  2  0  0  0  0
 15 37  1  0  0  0  0
 16 17  1  0  0  0  0
 16 26  1  0  0  0  0
 17 18  2  0  0  0  0
 17 22  1  0  0  0  0
 18 19  1  0  0  0  0
 18 38  1  0  0  0  0
 19 20  1  0  0  0  0
 20 21  1  0  0  0  0
 21 39  1  0  0  0  0
 21 40  1  0  0  0  0
 21 41  1  0  0  0  0
 22 23  1  0  0  0  0
 22 24  1  0  0  0  0
 22 25  1  0  0  0  0
 23 42  1  0  0  0  0
 23 43  1  0  0  0  0
 23 44  1  0  0  0  0
 24 45  1  0  0  0  0
 24 46  1  0  0  0  0
 24 47  1  0  0  0  0
 25 48  1  0  0  0  0
 25 49  1  0  0  0  0
 25 50  1  0  0  0  0
 26 27  1  0  0  0  0
 27 51  1  0  0  0  0
 27 52  1  0  0  0  0
 27 53  1  0  0  0  0
M  CHG  1  54  -1
M  END
$$$$
ZINC03856973
  -OEChem-08230709463D

 54 55  0     1  0  0  0  0  0999 V2000
   -2.1932    1.4380   -1.2186 C   0  0  0  0  0  0  0  0  0  0  0  0
   -0.7578    1.9676   -1.2295 C   0  0  0  0  0  0  0  0  0  0  0  0
   -0.7785    3.4974   -1.2210 C   0  0  0  0  0  0  0  0  0  0  0  0
   -0.0178    1.4608    0.0101 C   0  0  2  0  0  0  0  0  0  0  0  0
   -0.5280    1.8123    0.9069 H   0  0  0  0  0  0  0  0  0  0  0  0
    1.3960    1.9824   -0.0006 C   0  0  0  0  0  0  0  0  0  0  0  0
    2.3249    1.2098   -0.0136 O   0  0  0  0  0  0  0  0  0  0  0  0
    0.0021   -0.0041    0.0020 N   0  0  0  0  0  0  0  0  0  0  0  0
   -1.0710   -0.7143    0.5156 C   0  0  0  0  0  0  0  0  0  0  0  0
   -1.2465   -2.0206    0.5948 N   0  0  0  0  0  0  0  0  0  0  0  0
   -2.3516   -2.5350    1.1298 C   0  0  0  0  0  0  0  0  0  0  0  0
   -3.3237   -1.6949    1.5930 C   0  0  0  0  0  0  0  0  0  0  0  0
   -2.5873   -0.1047    1.2390 S   0  0  0  0  0  0  0  0  0  0  0  0
   -2.5280   -4.0050    1.2161 C   0  0  0  0  0  0  0  0  0  0  0  0
   -3.6865   -4.5383    1.7766 C   0  0  0  0  0  0  0  0  0  0  0  0
   -3.8479   -5.9116    1.8502 C   0  0  0  0  0  0  0  0  0  0  0  0
   -2.8536   -6.7562    1.3764 C   0  0  0  0  0  0  0  0  0  0  0  0
   -1.6999   -6.2323    0.8241 C   0  0  0  0  0  0  0  0  0  0  0  0
   -1.5300   -4.8605    0.7406 C   0  0  0  0  0  0  0  0  0  0  0  0
   -0.3944   -4.3466    0.1974 O   0  0  0  0  0  0  0  0  0  0  0  0
    0.5823   -5.2802   -0.2678 C   0  0  0  0  0  0  0  0  0  0  0  0
   -3.0328   -8.2499    1.4640 C   0  0  0  0  0  0  0  0  0  0  0  0
   -1.8034   -8.9463    0.8772 C   0  0  0  0  0  0  0  0  0  0  0  0
   -3.1996   -8.6585    2.9290 C   0  0  0  0  0  0  0  0  0  0  0  0
   -4.2773   -8.6614    0.6749 C   0  0  0  0  0  0  0  0  0  0  0  0
   -4.9807   -6.4337    2.3919 O   0  0  0  0  0  0  0  0  0  0  0  0
   -5.9628   -5.5071    2.8598 C   0  0  0  0  0  0  0  0  0  0  0  0
   -2.7034    1.7896   -0.3218 H   0  0  0  0  0  0  0  0  0  0  0  0
   -2.7204    1.7991   -2.1017 H   0  0  0  0  0  0  0  0  0  0  0  0
   -2.1784    0.3481   -1.2246 H   0  0  0  0  0  0  0  0  0  0  0  0
   -0.2476    1.6161   -2.1262 H   0  0  0  0  0  0  0  0  0  0  0  0
    0.2441    3.8747   -1.2288 H   0  0  0  0  0  0  0  0  0  0  0  0
   -1.3057    3.8585   -2.1041 H   0  0  0  0  0  0  0  0  0  0  0  0
   -1.2887    3.8490   -0.3242 H   0  0  0  0  0  0  0  0  0  0  0  0
    0.7665   -0.4767   -0.3629 H   0  0  0  0  0  0  0  0  0  0  0  0
   -4.2755   -1.9273    2.0476 H   0  0  0  0  0  0  0  0  0  0  0  0
   -4.4589   -3.8820    2.1493 H   0  0  0  0  0  0  0  0  0  0  0  0
   -0.9296   -6.8942    0.4567 H   0  0  0  0  0  0  0  0  0  0  0  0
    0.9115   -5.9055    0.5621 H   0  0  0  0  0  0  0  0  0  0  0  0
    0.1443   -5.9077   -1.0440 H   0  0  0  0  0  0  0  0  0  0  0  0
    1.4361   -4.7396   -0.6763 H   0  0  0  0  0  0  0  0  0  0  0  0
   -0.9168   -8.6531    1.4393 H   0  0  0  0  0  0  0  0  0  0  0  0
   -1.9330  -10.0267    0.9405 H   0  0  0  0  0  0  0  0  0  0  0  0
   -1.6845   -8.6553   -0.1665 H   0  0  0  0  0  0  0  0  0  0  0  0
   -4.0755   -8.1623    3.3471 H   0  0  0  0  0  0  0  0  0  0  0  0
   -3.3292   -9.7389    2.9924 H   0  0  0  0  0  0  0  0  0  0  0  0
   -2.3130   -8.3653    3.4912 H   0  0  0  0  0  0  0  0  0  0  0  0
   -4.1585   -8.3704   -0.3688 H   0  0  0  0  0  0  0  0  0  0  0  0
   -4.4069   -9.7419    0.7383 H   0  0  0  0  0  0  0  0  0  0  0  0
   -5.1532   -8.1653    1.0930 H   0  0  0  0  0  0  0  0  0  0  0  0
   -6.8134   -6.0539    3.2668 H   0  0  0  0  0  0  0  0  0  0  0  0
   -5.5285   -4.8793    3.6378 H   0  0  0  0  0  0  0  0  0  0  0  0
   -6.2957   -4.8815    2.0316 H   0  0  0  0  0  0  0  0  0  0  0  0
    1.6234    3.3053    0.0043 O   0  5  0  0  0  0  0  0  0  0  0  0
  1  2  1  0  0  0  0
  1 28  1  0  0  0  0
  1 29  1  0  0  0  0
  1 30  1  0  0  0  0
  2  3  1  0  0  0  0
  2  4  1  0  0  0  0
  2 31  1  0  0  0  0
  3 32  1  0  0  0  0
  3 33  1  0  0  0  0
  3 34  1  0  0  0  0
  4  5  1  0  0  0  0
  4  6  1  0  0  0  0
  4  8  1  0  0  0  0
  6  7  2  0  0  0  0
  6 54  1  0  0  0  0
  8  9  1  0  0  0  0
  8 35  1  0  0  0  0
  9 13  1  0  0  0  0
  9 10  2  0  0  0  0
 10 11  1  0  0  0  0
 11 12  2  0  0  0  0
 11 14  1  0  0  0  0
 12 13  1  0  0  0  0
 12 36  1  0  0  0  0
 14 19  2  0  0  0  0
 14 15  1  0  0  0  0
 15 16  2  0  0  0  0
 15 37  1  0  0  0  0
 16 17  1  0  0  0  0
 16 26  1  0  0  0  0
 17 18  2  0  0  0  0
 17 22  1  0  0  0  0
 18 19  1  0  0  0  0
 18 38  1  0  0  0  0
 19 20  1  0  0  0  0
 20 21  1  0  0  0  0
 21 39  1  0  0  0  0
 21 40  1  0  0  0  0
 21 41  1  0  0  0  0
 22 23  1  0  0  0  0
 22 24  1  0  0  0  0
 22 25  1  0  0  0  0
 23 42  1  0  0  0  0
 23 43  1  0  0  0  0
 23 44  1  0  0  0  0
 24 45  1  0  0  0  0
 24 46  1  0  0  0  0
 24 47  1  0  0  0  0
 25 48  1  0  0  0  0
 25 49  1  0  0  0  0
 25 50  1  0  0  0  0
 26 27  1  0  0  0  0
 27 51  1  0  0  0  0
 27 52  1  0  0  0  0
 27 53  1  0  0  0  0
M  CHG  1  54  -1
M  END
$$$$
ZINC03856974
  -OEChem-08230709463D

 54 55  0     1  0  0  0  0  0999 V2000
   -2.9192    2.0232    2.4781 C   0  0  0  0  0  0  0  0  0  0  0  0
   -2.2030    1.5297    1.2193 C   0  0  0  0  0  0  0  0  0  0  0  0
   -0.7339    1.9542    1.2689 C   0  0  0  0  0  0  0  0  0  0  0  0
   -0.0178    1.4608    0.0101 C   0  0  1  0  0  0  0  0  0  0  0  0
   -0.5450    1.8219   -0.8730 H   0  0  0  0  0  0  0  0  0  0  0  0
    1.3960    1.9824   -0.0006 C   0  0  0  0  0  0  0  0  0  0  0  0
    2.3249    1.2098   -0.0136 O   0  0  0  0  0  0  0  0  0  0  0  0
    0.0021   -0.0041    0.0020 N   0  0  0  0  0  0  0  0  0  0  0  0
    0.1046   -0.6889   -1.1980 C   0  0  0  0  0  0  0  0  0  0  0  0
    0.1441   -1.9907   -1.4157 N   0  0  0  0  0  0  0  0  0  0  0  0
    0.2410   -2.4791   -2.6502 C   0  0  0  0  0  0  0  0  0  0  0  0
    0.3125   -1.6165   -3.7068 C   0  0  0  0  0  0  0  0  0  0  0  0
    0.2263   -0.0440   -2.8604 S   0  0  0  0  0  0  0  0  0  0  0  0
    0.2773   -3.9444   -2.8756 C   0  0  0  0  0  0  0  0  0  0  0  0
    0.3791   -4.4505   -4.1694 C   0  0  0  0  0  0  0  0  0  0  0  0
    0.4175   -5.8195   -4.3735 C   0  0  0  0  0  0  0  0  0  0  0  0
    0.3440   -6.6871   -3.2926 C   0  0  0  0  0  0  0  0  0  0  0  0
    0.2376   -6.1905   -2.0071 C   0  0  0  0  0  0  0  0  0  0  0  0
    0.2037   -4.8230   -1.7908 C   0  0  0  0  0  0  0  0  0  0  0  0
    0.0986   -4.3359   -0.5258 O   0  0  0  0  0  0  0  0  0  0  0  0
    0.0280   -5.2922    0.5338 C   0  0  0  0  0  0  0  0  0  0  0  0
    0.3809   -8.1762   -3.5214 C   0  0  0  0  0  0  0  0  0  0  0  0
    0.2857   -8.9012   -2.1775 C   0  0  0  0  0  0  0  0  0  0  0  0
   -0.7981   -8.5856   -4.4064 C   0  0  0  0  0  0  0  0  0  0  0  0
    1.6927   -8.5536   -4.2127 C   0  0  0  0  0  0  0  0  0  0  0  0
    0.5225   -6.3149   -5.6355 O   0  0  0  0  0  0  0  0  0  0  0  0
    0.5937   -5.3656   -6.7013 C   0  0  0  0  0  0  0  0  0  0  0  0
   -2.4454    1.5901    3.3591 H   0  0  0  0  0  0  0  0  0  0  0  0
   -2.8566    3.1102    2.5293 H   0  0  0  0  0  0  0  0  0  0  0  0
   -3.9658    1.7208    2.4429 H   0  0  0  0  0  0  0  0  0  0  0  0
   -2.6769    1.9628    0.3384 H   0  0  0  0  0  0  0  0  0  0  0  0
   -2.2657    0.4427    1.1682 H   0  0  0  0  0  0  0  0  0  0  0  0
   -0.2601    1.5211    2.1498 H   0  0  0  0  0  0  0  0  0  0  0  0
   -0.6713    3.0412    1.3200 H   0  0  0  0  0  0  0  0  0  0  0  0
   -0.0566   -0.4945    0.8368 H   0  0  0  0  0  0  0  0  0  0  0  0
    0.3981   -1.8264   -4.7627 H   0  0  0  0  0  0  0  0  0  0  0  0
    0.4321   -3.7762   -5.0115 H   0  0  0  0  0  0  0  0  0  0  0  0
    0.1812   -6.8702   -1.1697 H   0  0  0  0  0  0  0  0  0  0  0  0
    0.9289   -5.9057    0.5301 H   0  0  0  0  0  0  0  0  0  0  0  0
   -0.0533   -4.7717    1.4881 H   0  0  0  0  0  0  0  0  0  0  0  0
   -0.8455   -5.9284    0.3914 H   0  0  0  0  0  0  0  0  0  0  0  0
   -0.6488   -8.6323   -1.6850 H   0  0  0  0  0  0  0  0  0  0  0  0
    0.3124   -9.9782   -2.3430 H   0  0  0  0  0  0  0  0  0  0  0  0
    1.1256   -8.6096   -1.5470 H   0  0  0  0  0  0  0  0  0  0  0  0
   -0.7302   -8.0691   -5.3639 H   0  0  0  0  0  0  0  0  0  0  0  0
   -0.7714   -9.6626   -4.5719 H   0  0  0  0  0  0  0  0  0  0  0  0
   -1.7326   -8.3167   -3.9140 H   0  0  0  0  0  0  0  0  0  0  0  0
    2.5326   -8.2620   -3.5821 H   0  0  0  0  0  0  0  0  0  0  0  0
    1.7194   -9.6306   -4.3781 H   0  0  0  0  0  0  0  0  0  0  0  0
    1.7606   -8.0371   -5.1701 H   0  0  0  0  0  0  0  0  0  0  0  0
    0.6747   -5.8923   -7.6521 H   0  0  0  0  0  0  0  0  0  0  0  0
   -0.3069   -4.7516   -6.7017 H   0  0  0  0  0  0  0  0  0  0  0  0
    1.4675   -4.7289   -6.5629 H   0  0  0  0  0  0  0  0  0  0  0  0
    1.6234    3.3053    0.0043 O   0  5  0  0  0  0  0  0  0  0  0  0
  1  2  1  0  0  0  0
  1 28  1  0  0  0  0
  1 29  1  0  0  0  0
  1 30  1  0  0  0  0
  2  3  1  0  0  0  0
  2 31  1  0  0  0  0
  2 32  1  0  0  0  0
  3  4  1  0  0  0  0
  3 33  1  0  0  0  0
  3 34  1  0  0  0  0
  4  5  1  0  0  0  0
  4  6  1  0  0  0  0
  4  8  1  0  0  0  0
  6  7  2  0  0  0  0
  6 54  1  0  0  0  0
  8  9  1  0  0  0  0
  8 35  1  0  0  0  0
  9 13  1  0  0  0  0
  9 10  2  0  0  0  0
 10 11  1  0  0  0  0
 11 12  2  0  0  0  0
 11 14  1  0  0  0  0
 12 13  1  0  0  0  0
 12 36  1  0  0  0  0
 14 19  2  0  0  0  0
 14 15  1  0  0  0  0
 15 16  2  0  0  0  0
 15 37  1  0  0  0  0
 16 17  1  0  0  0  0
 16 26  1  0  0  0  0
 17 18  2  0  0  0  0
 17 22  1  0  0  0  0
 18 19  1  0  0  0  0
 18 38  1  0  0  0  0
 19 20  1  0  0  0  0
 20 21  1  0  0  0  0
 21 39  1  0  0  0  0
 21 40  1  0  0  0  0
 21 41  1  0  0  0  0
 22 23  1  0  0  0  0
 22 24  1  0  0  0  0
 22 25  1  0  0  0  0
 23 42  1  0  0  0  0
 23 43  1  0  0  0  0
 23 44  1  0  0  0  0
 24 45  1  0  0  0  0
 24 46  1  0  0  0  0
 24 47  1  0  0  0  0
 25 48  1  0  0  0  0
 25 49  1  0  0  0  0
 25 50  1  0  0  0  0
 26 27  1  0  0  0  0
 27 51  1  0  0  0  0
 27 52  1  0  0  0  0
 27 53  1  0  0  0  0
M  CHG  1  54  -1
M  END
$$$$
ZINC03856975
  -OEChem-08230709463D

 54 55  0     1  0  0  0  0  0999 V2000
   -3.9053   -2.7172    2.7193 C   0  0  0  0  0  0  0  0  0  0  0  0
   -2.9848   -1.6601    2.1061 C   0  0  0  0  0  0  0  0  0  0  0  0
   -3.3563   -1.4509    0.6367 C   0  0  0  0  0  0  0  0  0  0  0  0
   -2.4358   -0.3937    0.0235 C   0  0  2  0  0  0  0  0  0  0  0  0
   -2.4836    0.5186    0.6181 H   0  0  0  0  0  0  0  0  0  0  0  0
   -2.8791   -0.0984   -1.3862 C   0  0  0  0  0  0  0  0  0  0  0  0
   -2.1227   -0.2871   -2.3094 O   0  0  0  0  0  0  0  0  0  0  0  0
   -1.0592   -0.8947    0.0078 N   0  0  0  0  0  0  0  0  0  0  0  0
    0.0021   -0.0041    0.0020 C   0  0  0  0  0  0  0  0  0  0  0  0
    1.2992   -0.2509   -0.0117 N   0  0  0  0  0  0  0  0  0  0  0  0
    2.1881    0.7399   -0.0149 C   0  0  0  0  0  0  0  0  0  0  0  0
    1.7481    2.0329   -0.0037 C   0  0  0  0  0  0  0  0  0  0  0  0
   -0.0222    1.7829    0.0118 S   0  0  0  0  0  0  0  0  0  0  0  0
    3.6410    0.4430   -0.0308 C   0  0  0  0  0  0  0  0  0  0  0  0
    4.5671    1.4836   -0.0403 C   0  0  0  0  0  0  0  0  0  0  0  0
    5.9225    1.2004   -0.0485 C   0  0  0  0  0  0  0  0  0  0  0  0
    6.3587   -0.1172   -0.0601 C   0  0  0  0  0  0  0  0  0  0  0  0
    5.4441   -1.1535   -0.0570 C   0  0  0  0  0  0  0  0  0  0  0  0
    4.0861   -0.8820   -0.0421 C   0  0  0  0  0  0  0  0  0  0  0  0
    3.1876   -1.9024   -0.0390 O   0  0  0  0  0  0  0  0  0  0  0  0
    3.7143   -3.2308   -0.0511 C   0  0  0  0  0  0  0  0  0  0  0  0
    7.8351   -0.4190   -0.0758 C   0  0  0  0  0  0  0  0  0  0  0  0
    8.0457   -1.9344   -0.0859 C   0  0  0  0  0  0  0  0  0  0  0  0
    8.4673    0.1921   -1.3279 C   0  0  0  0  0  0  0  0  0  0  0  0
    8.4911    0.1788    1.1705 C   0  0  0  0  0  0  0  0  0  0  0  0
    6.8278    2.2151   -0.0512 O   0  0  0  0  0  0  0  0  0  0  0  0
    6.3097    3.5468   -0.0387 C   0  0  0  0  0  0  0  0  0  0  0  0
   -4.9401   -2.3820    2.6504 H   0  0  0  0  0  0  0  0  0  0  0  0
   -3.7908   -3.6566    2.1783 H   0  0  0  0  0  0  0  0  0  0  0  0
   -3.6406   -2.8663    3.7662 H   0  0  0  0  0  0  0  0  0  0  0  0
   -1.9499   -1.9953    2.1751 H   0  0  0  0  0  0  0  0  0  0  0  0
   -3.0993   -0.7208    2.6471 H   0  0  0  0  0  0  0  0  0  0  0  0
   -4.3911   -1.1156    0.5678 H   0  0  0  0  0  0  0  0  0  0  0  0
   -3.2418   -2.3902    0.0957 H   0  0  0  0  0  0  0  0  0  0  0  0
   -0.8908   -1.8499    0.0013 H   0  0  0  0  0  0  0  0  0  0  0  0
    2.3137    2.9529   -0.0042 H   0  0  0  0  0  0  0  0  0  0  0  0
    4.2286    2.5092   -0.0365 H   0  0  0  0  0  0  0  0  0  0  0  0
    5.7890   -2.1769   -0.0657 H   0  0  0  0  0  0  0  0  0  0  0  0
    2.8930   -3.9474   -0.0471 H   0  0  0  0  0  0  0  0  0  0  0  0
    4.3174   -3.3743   -0.9477 H   0  0  0  0  0  0  0  0  0  0  0  0
    4.3344   -3.3838    0.8322 H   0  0  0  0  0  0  0  0  0  0  0  0
    7.5784   -2.3603   -0.9738 H   0  0  0  0  0  0  0  0  0  0  0  0
    9.1136   -2.1528   -0.0972 H   0  0  0  0  0  0  0  0  0  0  0  0
    7.5953   -2.3698    0.8061 H   0  0  0  0  0  0  0  0  0  0  0  0
    8.3173    1.2717   -1.3207 H   0  0  0  0  0  0  0  0  0  0  0  0
    9.5352   -0.0262   -1.3392 H   0  0  0  0  0  0  0  0  0  0  0  0
    8.0000   -0.2338   -2.2157 H   0  0  0  0  0  0  0  0  0  0  0  0
    8.0407   -0.2566    2.0625 H   0  0  0  0  0  0  0  0  0  0  0  0
    9.5590   -0.0396    1.1591 H   0  0  0  0  0  0  0  0  0  0  0  0
    8.3411    1.2584    1.1777 H   0  0  0  0  0  0  0  0  0  0  0  0
    5.7076    3.6940    0.8578 H   0  0  0  0  0  0  0  0  0  0  0  0
    7.1357    4.2581   -0.0425 H   0  0  0  0  0  0  0  0  0  0  0  0
    5.6908    3.7042   -0.9220 H   0  0  0  0  0  0  0  0  0  0  0  0
   -4.1142    0.3742   -1.6163 O   0  5  0  0  0  0  0  0  0  0  0  0
  1  2  1  0  0  0  0
  1 28  1  0  0  0  0
  1 29  1  0  0  0  0
  1 30  1  0  0  0  0
  2  3  1  0  0  0  0
  2 31  1  0  0  0  0
  2 32  1  0  0  0  0
  3  4  1  0  0  0  0
  3 33  1  0  0  0  0
  3 34  1  0  0  0  0
  4  5  1  0  0  0  0
  4  6  1  0  0  0  0
  4  8  1  0  0  0  0
  6  7  2  0  0  0  0
  6 54  1  0  0  0  0
  8  9  1  0  0  0  0
  8 35  1  0  0  0  0
  9 13  1  0  0  0  0
  9 10  2  0  0  0  0
 10 11  1  0  0  0  0
 11 12  2  0  0  0  0
 11 14  1  0  0  0  0
 12 13  1  0  0  0  0
 12 36  1  0  0  0  0
 14 19  2  0  0  0  0
 14 15  1  0  0  0  0
 15 16  2  0  0  0  0
 15 37  1  0  0  0  0
 16 17  1  0  0  0  0
 16 26  1  0  0  0  0
 17 18  2  0  0  0  0
 17 22  1  0  0  0  0
 18 19  1  0  0  0  0
 18 38  1  0  0  0  0
 19 20  1  0  0  0  0
 20 21  1  0  0  0  0
 21 39  1  0  0  0  0
 21 40  1  0  0  0  0
 21 41  1  0  0  0  0
 22 23  1  0  0  0  0
 22 24  1  0  0  0  0
 22 25  1  0  0  0  0
 23 42  1  0  0  0  0
 23 43  1  0  0  0  0
 23 44  1  0  0  0  0
 24 45  1  0  0  0  0
 24 46  1  0  0  0  0
 24 47  1  0  0  0  0
 25 48  1  0  0  0  0
 25 49  1  0  0  0  0
 25 50  1  0  0  0  0
 26 27  1  0  0  0  0
 27 51  1  0  0  0  0
 27 52  1  0  0  0  0
 27 53  1  0  0  0  0
M  CHG  1  54  -1
M  END
$$$$
ZINC03856976
  -OEChem-08230709463D

 52 53  0     1  0  0  0  0  0999 V2000
   -4.7843   -0.8743   -0.6806 C   0  0  0  0  0  0  0  0  0  0  0  0
   -3.3680   -1.4447   -0.5824 C   0  0  1  0  0  0  0  0  0  0  0  0
   -3.0146   -1.7131   -1.5780 H   0  0  0  0  0  0  0  0  0  0  0  0
   -2.4358   -0.3937    0.0235 C   0  0  1  0  0  0  0  0  0  0  0  0
   -2.4950    0.5246   -0.5607 H   0  0  0  0  0  0  0  0  0  0  0  0
   -2.8518   -0.1127    1.4444 C   0  0  0  0  0  0  0  0  0  0  0  0
   -2.0779   -0.3106    2.3509 O   0  0  0  0  0  0  0  0  0  0  0  0
   -1.0592   -0.8947    0.0078 N   0  0  0  0  0  0  0  0  0  0  0  0
    0.0021   -0.0041    0.0020 C   0  0  0  0  0  0  0  0  0  0  0  0
    1.2992   -0.2509   -0.0117 N   0  0  0  0  0  0  0  0  0  0  0  0
    2.1881    0.7399   -0.0149 C   0  0  0  0  0  0  0  0  0  0  0  0
    1.7481    2.0329   -0.0037 C   0  0  0  0  0  0  0  0  0  0  0  0
   -0.0222    1.7829    0.0118 S   0  0  0  0  0  0  0  0  0  0  0  0
    3.6410    0.4430   -0.0308 C   0  0  0  0  0  0  0  0  0  0  0  0
    4.5671    1.4836   -0.0403 C   0  0  0  0  0  0  0  0  0  0  0  0
    5.9225    1.2004   -0.0485 C   0  0  0  0  0  0  0  0  0  0  0  0
    6.3587   -0.1172   -0.0601 C   0  0  0  0  0  0  0  0  0  0  0  0
    5.4441   -1.1535   -0.0570 C   0  0  0  0  0  0  0  0  0  0  0  0
    4.0861   -0.8820   -0.0421 C   0  0  0  0  0  0  0  0  0  0  0  0
    3.1876   -1.9024   -0.0390 O   0  0  0  0  0  0  0  0  0  0  0  0
    3.7143   -3.2308   -0.0511 C   0  0  0  0  0  0  0  0  0  0  0  0
    7.8351   -0.4190   -0.0758 C   0  0  0  0  0  0  0  0  0  0  0  0
    8.0457   -1.9344   -0.0859 C   0  0  0  0  0  0  0  0  0  0  0  0
    8.4673    0.1921   -1.3279 C   0  0  0  0  0  0  0  0  0  0  0  0
    8.4911    0.1788    1.1705 C   0  0  0  0  0  0  0  0  0  0  0  0
    6.8278    2.2151   -0.0512 O   0  0  0  0  0  0  0  0  0  0  0  0
    6.3097    3.5468   -0.0387 C   0  0  0  0  0  0  0  0  0  0  0  0
   -3.3792   -2.6072    0.2485 O   0  0  0  0  0  0  0  0  0  0  0  0
   -4.7757    0.0124   -1.3145 H   0  0  0  0  0  0  0  0  0  0  0  0
   -5.4484   -1.6231   -1.1124 H   0  0  0  0  0  0  0  0  0  0  0  0
   -5.1377   -0.6059    0.3149 H   0  0  0  0  0  0  0  0  0  0  0  0
   -0.8908   -1.8499    0.0013 H   0  0  0  0  0  0  0  0  0  0  0  0
    2.3137    2.9529   -0.0042 H   0  0  0  0  0  0  0  0  0  0  0  0
    4.2286    2.5092   -0.0365 H   0  0  0  0  0  0  0  0  0  0  0  0
    5.7890   -2.1769   -0.0657 H   0  0  0  0  0  0  0  0  0  0  0  0
    4.3174   -3.3743   -0.9477 H   0  0  0  0  0  0  0  0  0  0  0  0
    4.3344   -3.3838    0.8322 H   0  0  0  0  0  0  0  0  0  0  0  0
    2.8930   -3.9474   -0.0471 H   0  0  0  0  0  0  0  0  0  0  0  0
    7.5784   -2.3603   -0.9738 H   0  0  0  0  0  0  0  0  0  0  0  0
    9.1136   -2.1528   -0.0972 H   0  0  0  0  0  0  0  0  0  0  0  0
    7.5953   -2.3698    0.8061 H   0  0  0  0  0  0  0  0  0  0  0  0
    8.3173    1.2717   -1.3207 H   0  0  0  0  0  0  0  0  0  0  0  0
    9.5352   -0.0262   -1.3392 H   0  0  0  0  0  0  0  0  0  0  0  0
    8.0000   -0.2338   -2.2157 H   0  0  0  0  0  0  0  0  0  0  0  0
    8.0407   -0.2566    2.0625 H   0  0  0  0  0  0  0  0  0  0  0  0
    9.5590   -0.0396    1.1591 H   0  0  0  0  0  0  0  0  0  0  0  0
    8.3411    1.2584    1.1777 H   0  0  0  0  0  0  0  0  0  0  0  0
    5.6908    3.7042   -0.9220 H   0  0  0  0  0  0  0  0  0  0  0  0
    5.7076    3.6940    0.8578 H   0  0  0  0  0  0  0  0  0  0  0  0
    7.1357    4.2581   -0.0425 H   0  0  0  0  0  0  0  0  0  0  0  0
   -3.6837   -2.4424    1.1514 H   0  0  0  0  0  0  0  0  0  0  0  0
   -4.0822    0.3575    1.7030 O   0  5  0  0  0  0  0  0  0  0  0  0
  1  2  1  0  0  0  0
  1 29  1  0  0  0  0
  1 30  1  0  0  0  0
  1 31  1  0  0  0  0
  2  3  1  0  0  0  0
  2  4  1  0  0  0  0
  2 28  1  0  0  0  0
  4  5  1  0  0  0  0
  4  6  1  0  0  0  0
  4  8  1  0  0  0  0
  6  7  2  0  0  0  0
  6 52  1  0  0  0  0
  8  9  1  0  0  0  0
  8 32  1  0  0  0  0
  9 13  1  0  0  0  0
  9 10  2  0  0  0  0
 10 11  1  0  0  0  0
 11 12  2  0  0  0  0
 11 14  1  0  0  0  0
 12 13  1  0  0  0  0
 12 33  1  0  0  0  0
 14 19  2  0  0  0  0
 14 15  1  0  0  0  0
 15 16  2  0  0  0  0
 15 34  1  0  0  0  0
 16 17  1  0  0  0  0
 16 26  1  0  0  0  0
 17 18  2  0  0  0  0
 17 22  1  0  0  0  0
 18 19  1  0  0  0  0
 18 35  1  0  0  0  0
 19 20  1  0  0  0  0
 20 21  1  0  0  0  0
 21 36  1  0  0  0  0
 21 37  1  0  0  0  0
 21 38  1  0  0  0  0
 22 23  1  0  0  0  0
 22 24  1  0  0  0  0
 22 25  1  0  0  0  0
 23 39  1  0  0  0  0
 23 40  1  0  0  0  0
 23 41  1  0  0  0  0
 24 42  1  0  0  0  0
 24 43  1  0  0  0  0
 24 44  1  0  0  0  0
 25 45  1  0  0  0  0
 25 46  1  0  0  0  0
 25 47  1  0  0  0  0
 26 27  1  0  0  0  0
 27 48  1  0  0  0  0
 27 49  1  0  0  0  0
 27 50  1  0  0  0  0
 28 51  1  0  0  0  0
M  CHG  1  52  -1
M  END
$$$$
ZINC03856977
  -OEChem-08230709463D

 52 53  0     1  0  0  0  0  0999 V2000
   -2.1265    1.3248    1.3432 C   0  0  0  0  0  0  0  0  0  0  0  0
   -0.7339    1.9542    1.2689 C   0  0  2  0  0  0  0  0  0  0  0  0
   -0.8273    3.0396    1.2319 H   0  0  0  0  0  0  0  0  0  0  0  0
   -0.0178    1.4608    0.0101 C   0  0  1  0  0  0  0  0  0  0  0  0
   -0.5450    1.8219   -0.8730 H   0  0  0  0  0  0  0  0  0  0  0  0
    1.3960    1.9824   -0.0006 C   0  0  0  0  0  0  0  0  0  0  0  0
    2.3249    1.2098   -0.0136 O   0  0  0  0  0  0  0  0  0  0  0  0
    0.0021   -0.0041    0.0020 N   0  0  0  0  0  0  0  0  0  0  0  0
   -1.0806   -0.7088   -0.4985 C   0  0  0  0  0  0  0  0  0  0  0  0
   -1.2556   -2.0142   -0.5933 N   0  0  0  0  0  0  0  0  0  0  0  0
   -2.3732   -2.5230   -1.1070 C   0  0  0  0  0  0  0  0  0  0  0  0
   -3.3540   -1.6781   -1.5426 C   0  0  0  0  0  0  0  0  0  0  0  0
   -2.6135   -0.0918   -1.1796 S   0  0  0  0  0  0  0  0  0  0  0  0
   -2.5519   -3.9920   -1.2048 C   0  0  0  0  0  0  0  0  0  0  0  0
   -3.7260   -4.5195   -1.7375 C   0  0  0  0  0  0  0  0  0  0  0  0
   -3.8847   -5.8918   -1.8321 C   0  0  0  0  0  0  0  0  0  0  0  0
   -2.8818   -6.7413   -1.3861 C   0  0  0  0  0  0  0  0  0  0  0  0
   -1.7172   -6.2233   -0.8514 C   0  0  0  0  0  0  0  0  0  0  0  0
   -1.5451   -4.8524   -0.7576 C   0  0  0  0  0  0  0  0  0  0  0  0
   -0.3991   -4.3443   -0.2311 O   0  0  0  0  0  0  0  0  0  0  0  0
    0.5862   -5.2828    0.2054 C   0  0  0  0  0  0  0  0  0  0  0  0
   -3.0632   -8.2341   -1.4855 C   0  0  0  0  0  0  0  0  0  0  0  0
   -1.8226   -8.9366   -0.9303 C   0  0  0  0  0  0  0  0  0  0  0  0
   -4.2919   -8.6536   -0.6760 C   0  0  0  0  0  0  0  0  0  0  0  0
   -3.2592   -8.6276   -2.9509 C   0  0  0  0  0  0  0  0  0  0  0  0
   -5.0278   -6.4082   -2.3574 O   0  0  0  0  0  0  0  0  0  0  0  0
   -6.0184   -5.4767   -2.7969 C   0  0  0  0  0  0  0  0  0  0  0  0
    0.0202    1.5800    2.4235 O   0  0  0  0  0  0  0  0  0  0  0  0
   -2.7017    1.6102    0.4625 H   0  0  0  0  0  0  0  0  0  0  0  0
   -2.0331    0.2394    1.3802 H   0  0  0  0  0  0  0  0  0  0  0  0
   -2.6367    1.6763    2.2400 H   0  0  0  0  0  0  0  0  0  0  0  0
    0.7733   -0.4806    0.3471 H   0  0  0  0  0  0  0  0  0  0  0  0
   -4.3142   -1.9056   -1.9814 H   0  0  0  0  0  0  0  0  0  0  0  0
   -4.5090   -3.8594   -2.0804 H   0  0  0  0  0  0  0  0  0  0  0  0
   -0.9398   -6.8890   -0.5065 H   0  0  0  0  0  0  0  0  0  0  0  0
    1.4478   -4.7465    0.6031 H   0  0  0  0  0  0  0  0  0  0  0  0
    0.1631   -5.9184    0.9833 H   0  0  0  0  0  0  0  0  0  0  0  0
    0.8992   -5.8993   -0.6372 H   0  0  0  0  0  0  0  0  0  0  0  0
   -1.6829   -8.6563    0.1137 H   0  0  0  0  0  0  0  0  0  0  0  0
   -1.9537  -10.0163   -1.0022 H   0  0  0  0  0  0  0  0  0  0  0  0
   -0.9472   -8.6378   -1.5070 H   0  0  0  0  0  0  0  0  0  0  0  0
   -5.1757   -8.1531   -1.0715 H   0  0  0  0  0  0  0  0  0  0  0  0
   -4.4231   -9.7333   -0.7479 H   0  0  0  0  0  0  0  0  0  0  0  0
   -4.1523   -8.3733    0.3680 H   0  0  0  0  0  0  0  0  0  0  0  0
   -2.3838   -8.3287   -3.5276 H   0  0  0  0  0  0  0  0  0  0  0  0
   -3.3904   -9.7072   -3.0228 H   0  0  0  0  0  0  0  0  0  0  0  0
   -4.1430   -8.1270   -3.3464 H   0  0  0  0  0  0  0  0  0  0  0  0
   -6.8768   -6.0192   -3.1932 H   0  0  0  0  0  0  0  0  0  0  0  0
   -6.3351   -4.8595   -1.9562 H   0  0  0  0  0  0  0  0  0  0  0  0
   -5.5988   -4.8411   -3.5767 H   0  0  0  0  0  0  0  0  0  0  0  0
   -0.3756    1.8610    3.2599 H   0  0  0  0  0  0  0  0  0  0  0  0
    1.6234    3.3053    0.0043 O   0  5  0  0  0  0  0  0  0  0  0  0
  1  2  1  0  0  0  0
  1 29  1  0  0  0  0
  1 30  1  0  0  0  0
  1 31  1  0  0  0  0
  2  3  1  0  0  0  0
  2  4  1  0  0  0  0
  2 28  1  0  0  0  0
  4  5  1  0  0  0  0
  4  6  1  0  0  0  0
  4  8  1  0  0  0  0
  6  7  2  0  0  0  0
  6 52  1  0  0  0  0
  8  9  1  0  0  0  0
  8 32  1  0  0  0  0
  9 13  1  0  0  0  0
  9 10  2  0  0  0  0
 10 11  1  0  0  0  0
 11 12  2  0  0  0  0
 11 14  1  0  0  0  0
 12 13  1  0  0  0  0
 12 33  1  0  0  0  0
 14 19  2  0  0  0  0
 14 15  1  0  0  0  0
 15 16  2  0  0  0  0
 15 34  1  0  0  0  0
 16 17  1  0  0  0  0
 16 26  1  0  0  0  0
 17 18  2  0  0  0  0
 17 22  1  0  0  0  0
 18 19  1  0  0  0  0
 18 35  1  0  0  0  0
 19 20  1  0  0  0  0
 20 21  1  0  0  0  0
 21 36  1  0  0  0  0
 21 37  1  0  0  0  0
 21 38  1  0  0  0  0
 22 23  1  0  0  0  0
 22 24  1  0  0  0  0
 22 25  1  0  0  0  0
 23 39  1  0  0  0  0
 23 40  1  0  0  0  0
 23 41  1  0  0  0  0
 24 42  1  0  0  0  0
 24 43  1  0  0  0  0
 24 44  1  0  0  0  0
 25 45  1  0  0  0  0
 25 46  1  0  0  0  0
 25 47  1  0  0  0  0
 26 27  1  0  0  0  0
 27 48  1  0  0  0  0
 27 49  1  0  0  0  0
 27 50  1  0  0  0  0
 28 51  1  0  0  0  0
M  CHG  1  52  -1
M  END
$$$$
ZINC03856978
  -OEChem-08230709463D

 52 53  0     1  0  0  0  0  0999 V2000
    1.4167    2.0553   -0.0004 C   0  0  0  0  0  0  0  0  0  0  0  0
   -0.0187    1.5258    0.0104 C   0  0  1  0  0  0  0  0  0  0  0  0
   -0.5459    1.8868   -0.8726 H   0  0  0  0  0  0  0  0  0  0  0  0
    0.0021   -0.0041    0.0020 C   0  0  2  0  0  0  0  0  0  0  0  0
    0.5123   -0.3556   -0.8948 H   0  0  0  0  0  0  0  0  0  0  0  0
   -1.4117   -0.5257    0.0127 C   0  0  0  0  0  0  0  0  0  0  0  0
   -1.7888   -1.2305    0.9188 O   0  0  0  0  0  0  0  0  0  0  0  0
    0.7106   -0.4894    1.1889 N   0  0  0  0  0  0  0  0  0  0  0  0
    1.3120   -1.7374    1.1746 C   0  0  0  0  0  0  0  0  0  0  0  0
    1.9940   -2.3466    2.1272 N   0  0  0  0  0  0  0  0  0  0  0  0
    2.5034   -3.5620    1.9390 C   0  0  0  0  0  0  0  0  0  0  0  0
    2.3263   -4.1819    0.7349 C   0  0  0  0  0  0  0  0  0  0  0  0
    1.3768   -2.9457   -0.1407 S   0  0  0  0  0  0  0  0  0  0  0  0
    3.2608   -4.2330    3.0230 C   0  0  0  0  0  0  0  0  0  0  0  0
    3.7922   -5.5048    2.8208 C   0  0  0  0  0  0  0  0  0  0  0  0
    4.5027   -6.1246    3.8350 C   0  0  0  0  0  0  0  0  0  0  0  0
    4.6767   -5.4854    5.0547 C   0  0  0  0  0  0  0  0  0  0  0  0
    4.1471   -4.2257    5.2625 C   0  0  0  0  0  0  0  0  0  0  0  0
    3.4393   -3.5942    4.2535 C   0  0  0  0  0  0  0  0  0  0  0  0
    2.9185   -2.3552    4.4595 O   0  0  0  0  0  0  0  0  0  0  0  0
    3.1400   -1.7632    5.7411 C   0  0  0  0  0  0  0  0  0  0  0  0
    5.4464   -6.1673    6.1564 C   0  0  0  0  0  0  0  0  0  0  0  0
    5.4927   -5.2568    7.3851 C   0  0  0  0  0  0  0  0  0  0  0  0
    4.7561   -7.4828    6.5221 C   0  0  0  0  0  0  0  0  0  0  0  0
    6.8718   -6.4544    5.6804 C   0  0  0  0  0  0  0  0  0  0  0  0
    5.0268   -7.3637    3.6372 O   0  0  0  0  0  0  0  0  0  0  0  0
    4.8100   -7.9632    2.3583 C   0  0  0  0  0  0  0  0  0  0  0  0
   -0.6875    1.9866    1.1861 O   0  0  0  0  0  0  0  0  0  0  0  0
    1.4019    3.1452    0.0056 H   0  0  0  0  0  0  0  0  0  0  0  0
    1.9439    1.6943    0.8826 H   0  0  0  0  0  0  0  0  0  0  0  0
    1.9269    1.7038   -0.8972 H   0  0  0  0  0  0  0  0  0  0  0  0
    0.7587    0.0631    1.9847 H   0  0  0  0  0  0  0  0  0  0  0  0
    2.6664   -5.1517    0.4030 H   0  0  0  0  0  0  0  0  0  0  0  0
    3.6538   -6.0046    1.8735 H   0  0  0  0  0  0  0  0  0  0  0  0
    4.2858   -3.7329    6.2134 H   0  0  0  0  0  0  0  0  0  0  0  0
    2.6734   -0.7787    5.7721 H   0  0  0  0  0  0  0  0  0  0  0  0
    2.7042   -2.3963    6.5140 H   0  0  0  0  0  0  0  0  0  0  0  0
    4.2114   -1.6632    5.9148 H   0  0  0  0  0  0  0  0  0  0  0  0
    4.4771   -5.0522    7.7242 H   0  0  0  0  0  0  0  0  0  0  0  0
    6.0494   -5.7500    8.1820 H   0  0  0  0  0  0  0  0  0  0  0  0
    5.9844   -4.3196    7.1246 H   0  0  0  0  0  0  0  0  0  0  0  0
    4.7231   -8.1314    5.6467 H   0  0  0  0  0  0  0  0  0  0  0  0
    5.3128   -7.9760    7.3189 H   0  0  0  0  0  0  0  0  0  0  0  0
    3.7406   -7.2782    6.8612 H   0  0  0  0  0  0  0  0  0  0  0  0
    7.3636   -5.5172    5.4199 H   0  0  0  0  0  0  0  0  0  0  0  0
    7.4285   -6.9476    6.4773 H   0  0  0  0  0  0  0  0  0  0  0  0
    6.8389   -7.1031    4.8050 H   0  0  0  0  0  0  0  0  0  0  0  0
    3.7393   -8.0666    2.1823 H   0  0  0  0  0  0  0  0  0  0  0  0
    5.2465   -7.3334    1.5831 H   0  0  0  0  0  0  0  0  0  0  0  0
    5.2788   -8.9469    2.3339 H   0  0  0  0  0  0  0  0  0  0  0  0
   -0.7381    2.9496    1.2579 H   0  0  0  0  0  0  0  0  0  0  0  0
   -2.2521   -0.2073   -0.9843 O   0  5  0  0  0  0  0  0  0  0  0  0
  1  2  1  0  0  0  0
  1 29  1  0  0  0  0
  1 30  1  0  0  0  0
  1 31  1  0  0  0  0
  2  3  1  0  0  0  0
  2  4  1  0  0  0  0
  2 28  1  0  0  0  0
  4  5  1  0  0  0  0
  4  6  1  0  0  0  0
  4  8  1  0  0  0  0
  6  7  2  0  0  0  0
  6 52  1  0  0  0  0
  8  9  1  0  0  0  0
  8 32  1  0  0  0  0
  9 13  1  0  0  0  0
  9 10  2  0  0  0  0
 10 11  1  0  0  0  0
 11 12  2  0  0  0  0
 11 14  1  0  0  0  0
 12 13  1  0  0  0  0
 12 33  1  0  0  0  0
 14 19  2  0  0  0  0
 14 15  1  0  0  0  0
 15 16  2  0  0  0  0
 15 34  1  0  0  0  0
 16 17  1  0  0  0  0
 16 26  1  0  0  0  0
 17 18  2  0  0  0  0
 17 22  1  0  0  0  0
 18 19  1  0  0  0  0
 18 35  1  0  0  0  0
 19 20  1  0  0  0  0
 20 21  1  0  0  0  0
 21 36  1  0  0  0  0
 21 37  1  0  0  0  0
 21 38  1  0  0  0  0
 22 23  1  0  0  0  0
 22 24  1  0  0  0  0
 22 25  1  0  0  0  0
 23 39  1  0  0  0  0
 23 40  1  0  0  0  0
 23 41  1  0  0  0  0
 24 42  1  0  0  0  0
 24 43  1  0  0  0  0
 24 44  1  0  0  0  0
 25 45  1  0  0  0  0
 25 46  1  0  0  0  0
 25 47  1  0  0  0  0
 26 27  1  0  0  0  0
 27 48  1  0  0  0  0
 27 49  1  0  0  0  0
 27 50  1  0  0  0  0
 28 51  1  0  0  0  0
M  CHG  1  52  -1
M  END
$$$$
ZINC03856979
  -OEChem-08230709463D

 52 53  0     1  0  0  0  0  0999 V2000
   -0.3551    3.9136   -1.1630 C   0  0  0  0  0  0  0  0  0  0  0  0
   -1.4284    2.8250   -1.2251 C   0  0  2  0  0  0  0  0  0  0  0  0
   -2.4142    3.2884   -1.2638 H   0  0  0  0  0  0  0  0  0  0  0  0
   -1.3295    1.9397    0.0189 C   0  0  2  0  0  0  0  0  0  0  0  0
   -1.3915    2.5607    0.9126 H   0  0  0  0  0  0  0  0  0  0  0  0
   -0.0143    1.2041    0.0087 C   0  0  0  0  0  0  0  0  0  0  0  0
    0.0021   -0.0041    0.0020 O   0  0  0  0  0  0  0  0  0  0  0  0
   -2.4300    0.9727    0.0189 N   0  0  0  0  0  0  0  0  0  0  0  0
   -2.8757    0.4304    1.2133 C   0  0  0  0  0  0  0  0  0  0  0  0
   -3.8416   -0.4450    1.4240 N   0  0  0  0  0  0  0  0  0  0  0  0
   -4.1373   -0.8605    2.6535 C   0  0  0  0  0  0  0  0  0  0  0  0
   -3.4279   -0.3715    3.7133 C   0  0  0  0  0  0  0  0  0  0  0  0
   -2.2902    0.7245    2.8761 S   0  0  0  0  0  0  0  0  0  0  0  0
   -5.2254   -1.8446    2.8703 C   0  0  0  0  0  0  0  0  0  0  0  0
   -5.5268   -2.2810    4.1585 C   0  0  0  0  0  0  0  0  0  0  0  0
   -6.5479   -3.1953    4.3556 C   0  0  0  0  0  0  0  0  0  0  0  0
   -7.2622   -3.6861    3.2714 C   0  0  0  0  0  0  0  0  0  0  0  0
   -6.9635   -3.2609    1.9906 C   0  0  0  0  0  0  0  0  0  0  0  0
   -5.9484   -2.3421    1.7824 C   0  0  0  0  0  0  0  0  0  0  0  0
   -5.6554   -1.9250    0.5218 O   0  0  0  0  0  0  0  0  0  0  0  0
   -6.4354   -2.4755   -0.5414 C   0  0  0  0  0  0  0  0  0  0  0  0
   -8.3679   -4.6861    3.4916 C   0  0  0  0  0  0  0  0  0  0  0  0
   -8.9906   -5.0626    2.1457 C   0  0  0  0  0  0  0  0  0  0  0  0
   -7.7968   -5.9395    4.1577 C   0  0  0  0  0  0  0  0  0  0  0  0
   -9.4389   -4.0715    4.3950 C   0  0  0  0  0  0  0  0  0  0  0  0
   -6.8474   -3.6177    5.6130 O   0  0  0  0  0  0  0  0  0  0  0  0
   -6.0726   -3.0718    6.6825 C   0  0  0  0  0  0  0  0  0  0  0  0
   -1.2307    2.0274   -2.3942 O   0  0  0  0  0  0  0  0  0  0  0  0
    0.6307    3.4502   -1.1243 H   0  0  0  0  0  0  0  0  0  0  0  0
   -0.4256    4.5443   -2.0492 H   0  0  0  0  0  0  0  0  0  0  0  0
   -0.5059    4.5220   -0.2712 H   0  0  0  0  0  0  0  0  0  0  0  0
   -2.8466    0.7121   -0.8174 H   0  0  0  0  0  0  0  0  0  0  0  0
   -3.5247   -0.5899    4.7665 H   0  0  0  0  0  0  0  0  0  0  0  0
   -4.9684   -1.9033    5.0022 H   0  0  0  0  0  0  0  0  0  0  0  0
   -7.5230   -3.6455    1.1508 H   0  0  0  0  0  0  0  0  0  0  0  0
   -6.3161   -3.5589   -0.5563 H   0  0  0  0  0  0  0  0  0  0  0  0
   -7.4856   -2.2277   -0.3877 H   0  0  0  0  0  0  0  0  0  0  0  0
   -6.0993   -2.0600   -1.4914 H   0  0  0  0  0  0  0  0  0  0  0  0
   -8.2276   -5.5004    1.5021 H   0  0  0  0  0  0  0  0  0  0  0  0
   -9.7903   -5.7858    2.3050 H   0  0  0  0  0  0  0  0  0  0  0  0
   -9.3975   -4.1696    1.6712 H   0  0  0  0  0  0  0  0  0  0  0  0
   -7.3532   -5.6714    5.1166 H   0  0  0  0  0  0  0  0  0  0  0  0
   -8.5965   -6.6628    4.3170 H   0  0  0  0  0  0  0  0  0  0  0  0
   -7.0338   -6.3774    3.5141 H   0  0  0  0  0  0  0  0  0  0  0  0
   -9.8458   -3.1786    3.9205 H   0  0  0  0  0  0  0  0  0  0  0  0
  -10.2387   -4.7948    4.5543 H   0  0  0  0  0  0  0  0  0  0  0  0
   -8.9953   -3.8034    5.3538 H   0  0  0  0  0  0  0  0  0  0  0  0
   -5.0216   -3.3193    6.5329 H   0  0  0  0  0  0  0  0  0  0  0  0
   -6.1916   -1.9885    6.7013 H   0  0  0  0  0  0  0  0  0  0  0  0
   -6.4135   -3.4913    7.6290 H   0  0  0  0  0  0  0  0  0  0  0  0
   -0.3721    1.5838   -2.4272 H   0  0  0  0  0  0  0  0  0  0  0  0
    1.1389    1.8910    0.0013 O   0  5  0  0  0  0  0  0  0  0  0  0
  1  2  1  0  0  0  0
  1 29  1  0  0  0  0
  1 30  1  0  0  0  0
  1 31  1  0  0  0  0
  2  3  1  0  0  0  0
  2  4  1  0  0  0  0
  2 28  1  0  0  0  0
  4  5  1  0  0  0  0
  4  6  1  0  0  0  0
  4  8  1  0  0  0  0
  6  7  2  0  0  0  0
  6 52  1  0  0  0  0
  8  9  1  0  0  0  0
  8 32  1  0  0  0  0
  9 13  1  0  0  0  0
  9 10  2  0  0  0  0
 10 11  1  0  0  0  0
 11 12  2  0  0  0  0
 11 14  1  0  0  0  0
 12 13  1  0  0  0  0
 12 33  1  0  0  0  0
 14 19  2  0  0  0  0
 14 15  1  0  0  0  0
 15 16  2  0  0  0  0
 15 34  1  0  0  0  0
 16 17  1  0  0  0  0
 16 26  1  0  0  0  0
 17 18  2  0  0  0  0
 17 22  1  0  0  0  0
 18 19  1  0  0  0  0
 18 35  1  0  0  0  0
 19 20  1  0  0  0  0
 20 21  1  0  0  0  0
 21 36  1  0  0  0  0
 21 37  1  0  0  0  0
 21 38  1  0  0  0  0
 22 23  1  0  0  0  0
 22 24  1  0  0  0  0
 22 25  1  0  0  0  0
 23 39  1  0  0  0  0
 23 40  1  0  0  0  0
 23 41  1  0  0  0  0
 24 42  1  0  0  0  0
 24 43  1  0  0  0  0
 24 44  1  0  0  0  0
 25 45  1  0  0  0  0
 25 46  1  0  0  0  0
 25 47  1  0  0  0  0
 26 27  1  0  0  0  0
 27 48  1  0  0  0  0
 27 49  1  0  0  0  0
 27 50  1  0  0  0  0
 28 51  1  0  0  0  0
M  CHG  1  52  -1
M  END
$$$$
ZINC03856981
  -OEChem-08230709463D

 54 55  0     1  0  0  0  0  0999 V2000
   -1.5924    8.2702   -0.7457 C   0  0  0  0  0  0  0  0  0  0  0  0
   -0.2360    7.7946   -1.2699 C   0  0  0  0  0  0  0  0  0  0  0  0
    0.4865    8.9609   -1.9472 C   0  0  0  0  0  0  0  0  0  0  0  0
    0.6094    7.2793   -0.1034 C   0  0  1  0  0  0  0  0  0  0  0  0
    1.6063    7.0235   -0.4624 H   0  0  0  0  0  0  0  0  0  0  0  0
    0.7149    8.3499    0.9519 C   0  0  0  0  0  0  0  0  0  0  0  0
    0.3036    8.1401    2.0685 O   0  0  0  0  0  0  0  0  0  0  0  0
   -0.0235    6.0890    0.4700 N   0  0  0  0  0  0  0  0  0  0  0  0
    0.7429    5.1566    1.1503 C   0  0  0  0  0  0  0  0  0  0  0  0
    0.3678    4.0324    1.7327 N   0  0  0  0  0  0  0  0  0  0  0  0
    1.2504    3.2484    2.3476 C   0  0  0  0  0  0  0  0  0  0  0  0
    2.5647    3.6182    2.3799 C   0  0  0  0  0  0  0  0  0  0  0  0
    2.5011    5.1565    1.4711 S   0  0  0  0  0  0  0  0  0  0  0  0
    0.8101    1.9893    2.9960 C   0  0  0  0  0  0  0  0  0  0  0  0
    1.2402    1.6788    4.2854 C   0  0  0  0  0  0  0  0  0  0  0  0
    0.8289    0.5069    4.8869 C   0  0  0  0  0  0  0  0  0  0  0  0
   -0.0105   -0.3643    4.2156 C   0  0  0  0  0  0  0  0  0  0  0  0
   -0.4495   -0.0639    2.9354 C   0  0  0  0  0  0  0  0  0  0  0  0
   -0.0370    1.1106    2.3177 C   0  0  0  0  0  0  0  0  0  0  0  0
   -0.4611    1.4057    1.0598 O   0  0  0  0  0  0  0  0  0  0  0  0
    0.3487    0.9435   -0.0231 C   0  0  0  0  0  0  0  0  0  0  0  0
   -1.2790   -0.9211    2.2820 O   0  0  0  0  0  0  0  0  0  0  0  0
   -1.6625   -2.1092    2.9773 C   0  0  0  0  0  0  0  0  0  0  0  0
    1.2962    0.1745    6.2805 C   0  0  0  0  0  0  0  0  0  0  0  0
    0.8379    1.2688    7.2467 C   0  0  0  0  0  0  0  0  0  0  0  0
    0.7017   -1.1678    6.7112 C   0  0  0  0  0  0  0  0  0  0  0  0
    2.8235    0.0852    6.2985 C   0  0  0  0  0  0  0  0  0  0  0  0
   -1.4418    9.0728   -0.0237 H   0  0  0  0  0  0  0  0  0  0  0  0
   -2.1947    8.6373   -1.5767 H   0  0  0  0  0  0  0  0  0  0  0  0
   -2.1071    7.4393   -0.2631 H   0  0  0  0  0  0  0  0  0  0  0  0
   -0.3866    6.9920   -1.9918 H   0  0  0  0  0  0  0  0  0  0  0  0
    1.4528    8.6220   -2.3207 H   0  0  0  0  0  0  0  0  0  0  0  0
   -0.1158    9.3279   -2.7783 H   0  0  0  0  0  0  0  0  0  0  0  0
    0.6371    9.7635   -1.2253 H   0  0  0  0  0  0  0  0  0  0  0  0
   -0.9791    5.9537    0.3734 H   0  0  0  0  0  0  0  0  0  0  0  0
    3.4100    3.1184    2.8295 H   0  0  0  0  0  0  0  0  0  0  0  0
    1.8957    2.3555    4.8135 H   0  0  0  0  0  0  0  0  0  0  0  0
   -0.3285   -1.2797    4.6924 H   0  0  0  0  0  0  0  0  0  0  0  0
    0.4196   -0.1436    0.0146 H   0  0  0  0  0  0  0  0  0  0  0  0
    1.3460    1.3757    0.0587 H   0  0  0  0  0  0  0  0  0  0  0  0
   -0.1019    1.2456   -0.9685 H   0  0  0  0  0  0  0  0  0  0  0  0
   -0.7734   -2.6907    3.2209 H   0  0  0  0  0  0  0  0  0  0  0  0
   -2.1838   -1.8403    3.8960 H   0  0  0  0  0  0  0  0  0  0  0  0
   -2.3230   -2.7028    2.3452 H   0  0  0  0  0  0  0  0  0  0  0  0
   -0.2501    1.3325    7.2339 H   0  0  0  0  0  0  0  0  0  0  0  0
    1.1759    1.0284    8.2547 H   0  0  0  0  0  0  0  0  0  0  0  0
    1.2615    2.2251    6.9399 H   0  0  0  0  0  0  0  0  0  0  0  0
    1.0282   -1.9474    6.0229 H   0  0  0  0  0  0  0  0  0  0  0  0
    1.0397   -1.4082    7.7192 H   0  0  0  0  0  0  0  0  0  0  0  0
   -0.3864   -1.1042    6.6984 H   0  0  0  0  0  0  0  0  0  0  0  0
    3.2470    1.0415    5.9917 H   0  0  0  0  0  0  0  0  0  0  0  0
    3.1615   -0.1552    7.3065 H   0  0  0  0  0  0  0  0  0  0  0  0
    3.1500   -0.6944    5.6102 H   0  0  0  0  0  0  0  0  0  0  0  0
    1.2658    9.5365    0.6515 O   0  5  0  0  0  0  0  0  0  0  0  0
  1  2  1  0  0  0  0
  1 28  1  0  0  0  0
  1 29  1  0  0  0  0
  1 30  1  0  0  0  0
  2  3  1  0  0  0  0
  2  4  1  0  0  0  0
  2 31  1  0  0  0  0
  3 32  1  0  0  0  0
  3 33  1  0  0  0  0
  3 34  1  0  0  0  0
  4  5  1  0  0  0  0
  4  6  1  0  0  0  0
  4  8  1  0  0  0  0
  6  7  2  0  0  0  0
  6 54  1  0  0  0  0
  8  9  1  0  0  0  0
  8 35  1  0  0  0  0
  9 13  1  0  0  0  0
  9 10  2  0  0  0  0
 10 11  1  0  0  0  0
 11 12  2  0  0  0  0
 11 14  1  0  0  0  0
 12 13  1  0  0  0  0
 12 36  1  0  0  0  0
 14 19  2  0  0  0  0
 14 15  1  0  0  0  0
 15 16  2  0  0  0  0
 15 37  1  0  0  0  0
 16 17  1  0  0  0  0
 16 24  1  0  0  0  0
 17 18  2  0  0  0  0
 17 38  1  0  0  0  0
 18 19  1  0  0  0  0
 18 22  1  0  0  0  0
 19 20  1  0  0  0  0
 20 21  1  0  0  0  0
 21 39  1  0  0  0  0
 21 40  1  0  0  0  0
 21 41  1  0  0  0  0
 22 23  1  0  0  0  0
 23 42  1  0  0  0  0
 23 43  1  0  0  0  0
 23 44  1  0  0  0  0
 24 25  1  0  0  0  0
 24 26  1  0  0  0  0
 24 27  1  0  0  0  0
 25 45  1  0  0  0  0
 25 46  1  0  0  0  0
 25 47  1  0  0  0  0
 26 48  1  0  0  0  0
 26 49  1  0  0  0  0
 26 50  1  0  0  0  0
 27 51  1  0  0  0  0
 27 52  1  0  0  0  0
 27 53  1  0  0  0  0
M  CHG  1  54  -1
M  END
$$$$
ZINC03856982
  -OEChem-08230709463D

 54 55  0     1  0  0  0  0  0999 V2000
   -0.5479    3.6959    2.6509 C   0  0  0  0  0  0  0  0  0  0  0  0
   -0.7758    2.2143    2.9575 C   0  0  0  0  0  0  0  0  0  0  0  0
   -0.2761    1.9030    4.3696 C   0  0  0  0  0  0  0  0  0  0  0  0
   -2.2698    1.8981    2.8639 C   0  0  2  0  0  0  0  0  0  0  0  0
   -2.6258    2.1200    1.8578 H   0  0  0  0  0  0  0  0  0  0  0  0
   -3.0247    2.7393    3.8607 C   0  0  0  0  0  0  0  0  0  0  0  0
   -3.6780    2.2082    4.7274 O   0  0  0  0  0  0  0  0  0  0  0  0
   -2.4881    0.4795    3.1574 N   0  0  0  0  0  0  0  0  0  0  0  0
   -2.3609   -0.4637    2.1506 C   0  0  0  0  0  0  0  0  0  0  0  0
   -2.5092   -1.7745    2.2108 N   0  0  0  0  0  0  0  0  0  0  0  0
   -2.3516   -2.5350    1.1298 C   0  0  0  0  0  0  0  0  0  0  0  0
   -2.0192   -1.9482   -0.0578 C   0  0  0  0  0  0  0  0  0  0  0  0
   -1.9450   -0.2293    0.4283 S   0  0  0  0  0  0  0  0  0  0  0  0
   -2.5282   -4.0051    1.2157 C   0  0  0  0  0  0  0  0  0  0  0  0
   -1.5852   -4.8577    0.6435 C   0  0  0  0  0  0  0  0  0  0  0  0
   -1.7490   -6.2253    0.7292 C   0  0  0  0  0  0  0  0  0  0  0  0
   -2.8532   -6.7565    1.3719 C   0  0  0  0  0  0  0  0  0  0  0  0
   -3.8004   -5.9189    1.9401 C   0  0  0  0  0  0  0  0  0  0  0  0
   -3.6427   -4.5402    1.8649 C   0  0  0  0  0  0  0  0  0  0  0  0
   -4.5702   -3.7156    2.4208 O   0  0  0  0  0  0  0  0  0  0  0  0
   -5.6583   -3.3087    1.5887 C   0  0  0  0  0  0  0  0  0  0  0  0
   -4.8835   -6.4462    2.5715 O   0  0  0  0  0  0  0  0  0  0  0  0
   -4.9813   -7.8713    2.6109 C   0  0  0  0  0  0  0  0  0  0  0  0
   -0.7243   -7.1438    0.1149 C   0  0  0  0  0  0  0  0  0  0  0  0
   -1.1418   -8.5981    0.3420 C   0  0  0  0  0  0  0  0  0  0  0  0
   -0.6287   -6.8693   -1.3872 C   0  0  0  0  0  0  0  0  0  0  0  0
    0.6378   -6.8966    0.7663 C   0  0  0  0  0  0  0  0  0  0  0  0
   -1.0939    4.3043    3.3719 H   0  0  0  0  0  0  0  0  0  0  0  0
    0.5165    3.9212    2.7176 H   0  0  0  0  0  0  0  0  0  0  0  0
   -0.9039    3.9177    1.6449 H   0  0  0  0  0  0  0  0  0  0  0  0
   -0.2298    1.6060    2.2364 H   0  0  0  0  0  0  0  0  0  0  0  0
   -0.4384    0.8475    4.5880 H   0  0  0  0  0  0  0  0  0  0  0  0
    0.7883    2.1282    4.4363 H   0  0  0  0  0  0  0  0  0  0  0  0
   -0.8221    2.5113    5.0906 H   0  0  0  0  0  0  0  0  0  0  0  0
   -2.7216    0.2006    4.0566 H   0  0  0  0  0  0  0  0  0  0  0  0
   -1.8485   -2.3985   -1.0245 H   0  0  0  0  0  0  0  0  0  0  0  0
   -0.7241   -4.4479    0.1366 H   0  0  0  0  0  0  0  0  0  0  0  0
   -2.9774   -7.8276    1.4313 H   0  0  0  0  0  0  0  0  0  0  0  0
   -5.2721   -2.7727    0.7217 H   0  0  0  0  0  0  0  0  0  0  0  0
   -6.2100   -4.1880    1.2562 H   0  0  0  0  0  0  0  0  0  0  0  0
   -6.3229   -2.6550    2.1536 H   0  0  0  0  0  0  0  0  0  0  0  0
   -5.0166   -8.2613    1.5937 H   0  0  0  0  0  0  0  0  0  0  0  0
   -4.1131   -8.2810    3.1272 H   0  0  0  0  0  0  0  0  0  0  0  0
   -5.8888   -8.1587    3.1419 H   0  0  0  0  0  0  0  0  0  0  0  0
   -2.1122   -8.7743   -0.1220 H   0  0  0  0  0  0  0  0  0  0  0  0
   -0.4006   -9.2625   -0.1023 H   0  0  0  0  0  0  0  0  0  0  0  0
   -1.2099   -8.7937    1.4122 H   0  0  0  0  0  0  0  0  0  0  0  0
   -0.3313   -5.8332   -1.5490 H   0  0  0  0  0  0  0  0  0  0  0  0
    0.1125   -7.5336   -1.8315 H   0  0  0  0  0  0  0  0  0  0  0  0
   -1.5991   -7.0454   -1.8512 H   0  0  0  0  0  0  0  0  0  0  0  0
    0.5697   -7.0922    1.8365 H   0  0  0  0  0  0  0  0  0  0  0  0
    1.3790   -7.5609    0.3220 H   0  0  0  0  0  0  0  0  0  0  0  0
    0.9353   -5.8605    0.6045 H   0  0  0  0  0  0  0  0  0  0  0  0
   -2.9714    4.0784    3.7858 O   0  5  0  0  0  0  0  0  0  0  0  0
  1  2  1  0  0  0  0
  1 28  1  0  0  0  0
  1 29  1  0  0  0  0
  1 30  1  0  0  0  0
  2  3  1  0  0  0  0
  2  4  1  0  0  0  0
  2 31  1  0  0  0  0
  3 32  1  0  0  0  0
  3 33  1  0  0  0  0
  3 34  1  0  0  0  0
  4  5  1  0  0  0  0
  4  6  1  0  0  0  0
  4  8  1  0  0  0  0
  6  7  2  0  0  0  0
  6 54  1  0  0  0  0
  8  9  1  0  0  0  0
  8 35  1  0  0  0  0
  9 13  1  0  0  0  0
  9 10  2  0  0  0  0
 10 11  1  0  0  0  0
 11 12  2  0  0  0  0
 11 14  1  0  0  0  0
 12 13  1  0  0  0  0
 12 36  1  0  0  0  0
 14 19  2  0  0  0  0
 14 15  1  0  0  0  0
 15 16  2  0  0  0  0
 15 37  1  0  0  0  0
 16 17  1  0  0  0  0
 16 24  1  0  0  0  0
 17 18  2  0  0  0  0
 17 38  1  0  0  0  0
 18 19  1  0  0  0  0
 18 22  1  0  0  0  0
 19 20  1  0  0  0  0
 20 21  1  0  0  0  0
 21 39  1  0  0  0  0
 21 40  1  0  0  0  0
 21 41  1  0  0  0  0
 22 23  1  0  0  0  0
 23 42  1  0  0  0  0
 23 43  1  0  0  0  0
 23 44  1  0  0  0  0
 24 25  1  0  0  0  0
 24 26  1  0  0  0  0
 24 27  1  0  0  0  0
 25 45  1  0  0  0  0
 25 46  1  0  0  0  0
 25 47  1  0  0  0  0
 26 48  1  0  0  0  0
 26 49  1  0  0  0  0
 26 50  1  0  0  0  0
 27 51  1  0  0  0  0
 27 52  1  0  0  0  0
 27 53  1  0  0  0  0
M  CHG  1  54  -1
M  END
$$$$
ZINC03856983
  -OEChem-08230709463D

 54 55  0     1  0  0  0  0  0999 V2000
   -1.0866    7.2748   -3.5588 C   0  0  0  0  0  0  0  0  0  0  0  0
   -0.2409    6.7589   -2.3928 C   0  0  0  0  0  0  0  0  0  0  0  0
   -0.2365    7.7960   -1.2680 C   0  0  0  0  0  0  0  0  0  0  0  0
    0.6092    7.2801   -0.1020 C   0  0  1  0  0  0  0  0  0  0  0  0
    1.6060    7.0244   -0.4613 H   0  0  0  0  0  0  0  0  0  0  0  0
    0.7150    8.3502    0.9539 C   0  0  0  0  0  0  0  0  0  0  0  0
    0.3040    8.1400    2.0704 O   0  0  0  0  0  0  0  0  0  0  0  0
   -0.0237    6.0896    0.4711 N   0  0  0  0  0  0  0  0  0  0  0  0
    0.7428    5.1569    1.1508 C   0  0  0  0  0  0  0  0  0  0  0  0
    0.3678    4.0324    1.7327 N   0  0  0  0  0  0  0  0  0  0  0  0
    1.2504    3.2484    2.3476 C   0  0  0  0  0  0  0  0  0  0  0  0
    2.5647    3.6182    2.3799 C   0  0  0  0  0  0  0  0  0  0  0  0
    2.5009    5.1571    1.4720 S   0  0  0  0  0  0  0  0  0  0  0  0
    0.8101    1.9893    2.9960 C   0  0  0  0  0  0  0  0  0  0  0  0
    1.2402    1.6788    4.2854 C   0  0  0  0  0  0  0  0  0  0  0  0
    0.8289    0.5069    4.8869 C   0  0  0  0  0  0  0  0  0  0  0  0
   -0.0105   -0.3643    4.2156 C   0  0  0  0  0  0  0  0  0  0  0  0
   -0.4495   -0.0639    2.9354 C   0  0  0  0  0  0  0  0  0  0  0  0
   -0.0370    1.1106    2.3177 C   0  0  0  0  0  0  0  0  0  0  0  0
   -0.4611    1.4057    1.0598 O   0  0  0  0  0  0  0  0  0  0  0  0
    0.3487    0.9434   -0.0231 C   0  0  0  0  0  0  0  0  0  0  0  0
   -1.2794   -0.9208    2.2822 O   0  0  0  0  0  0  0  0  0  0  0  0
   -1.6629   -2.1090    2.9774 C   0  0  0  0  0  0  0  0  0  0  0  0
    1.2962    0.1745    6.2805 C   0  0  0  0  0  0  0  0  0  0  0  0
    0.8379    1.2688    7.2467 C   0  0  0  0  0  0  0  0  0  0  0  0
    0.7017   -1.1678    6.7112 C   0  0  0  0  0  0  0  0  0  0  0  0
    2.8235    0.0852    6.2985 C   0  0  0  0  0  0  0  0  0  0  0  0
   -1.0898    6.5359   -4.3602 H   0  0  0  0  0  0  0  0  0  0  0  0
   -2.1079    7.4464   -3.2189 H   0  0  0  0  0  0  0  0  0  0  0  0
   -0.6646    8.2095   -3.9281 H   0  0  0  0  0  0  0  0  0  0  0  0
    0.7804    6.5872   -2.7327 H   0  0  0  0  0  0  0  0  0  0  0  0
   -0.6629    5.8242   -2.0235 H   0  0  0  0  0  0  0  0  0  0  0  0
   -1.2578    7.9677   -0.9280 H   0  0  0  0  0  0  0  0  0  0  0  0
    0.1855    8.7307   -1.6373 H   0  0  0  0  0  0  0  0  0  0  0  0
   -0.9793    5.9544    0.3746 H   0  0  0  0  0  0  0  0  0  0  0  0
    3.4100    3.1181    2.8291 H   0  0  0  0  0  0  0  0  0  0  0  0
    1.8957    2.3555    4.8135 H   0  0  0  0  0  0  0  0  0  0  0  0
   -0.3288   -1.2795    4.6925 H   0  0  0  0  0  0  0  0  0  0  0  0
    0.4196   -0.1436    0.0146 H   0  0  0  0  0  0  0  0  0  0  0  0
    1.3460    1.3757    0.0587 H   0  0  0  0  0  0  0  0  0  0  0  0
   -0.1019    1.2456   -0.9685 H   0  0  0  0  0  0  0  0  0  0  0  0
   -0.7737   -2.6906    3.2207 H   0  0  0  0  0  0  0  0  0  0  0  0
   -2.1838   -1.8401    3.8964 H   0  0  0  0  0  0  0  0  0  0  0  0
   -2.3237   -2.7024    2.3455 H   0  0  0  0  0  0  0  0  0  0  0  0
   -0.2501    1.3325    7.2339 H   0  0  0  0  0  0  0  0  0  0  0  0
    1.1759    1.0284    8.2547 H   0  0  0  0  0  0  0  0  0  0  0  0
    1.2615    2.2251    6.9399 H   0  0  0  0  0  0  0  0  0  0  0  0
    1.0282   -1.9474    6.0229 H   0  0  0  0  0  0  0  0  0  0  0  0
    1.0397   -1.4082    7.7192 H   0  0  0  0  0  0  0  0  0  0  0  0
   -0.3864   -1.1042    6.6984 H   0  0  0  0  0  0  0  0  0  0  0  0
    3.2470    1.0415    5.9917 H   0  0  0  0  0  0  0  0  0  0  0  0
    3.1615   -0.1552    7.3065 H   0  0  0  0  0  0  0  0  0  0  0  0
    3.1500   -0.6944    5.6102 H   0  0  0  0  0  0  0  0  0  0  0  0
    1.2659    9.5369    0.6539 O   0  5  0  0  0  0  0  0  0  0  0  0
  1  2  1  0  0  0  0
  1 28  1  0  0  0  0
  1 29  1  0  0  0  0
  1 30  1  0  0  0  0
  2  3  1  0  0  0  0
  2 31  1  0  0  0  0
  2 32  1  0  0  0  0
  3  4  1  0  0  0  0
  3 33  1  0  0  0  0
  3 34  1  0  0  0  0
  4  5  1  0  0  0  0
  4  6  1  0  0  0  0
  4  8  1  0  0  0  0
  6  7  2  0  0  0  0
  6 54  1  0  0  0  0
  8  9  1  0  0  0  0
  8 35  1  0  0  0  0
  9 13  1  0  0  0  0
  9 10  2  0  0  0  0
 10 11  1  0  0  0  0
 11 12  2  0  0  0  0
 11 14  1  0  0  0  0
 12 13  1  0  0  0  0
 12 36  1  0  0  0  0
 14 19  2  0  0  0  0
 14 15  1  0  0  0  0
 15 16  2  0  0  0  0
 15 37  1  0  0  0  0
 16 17  1  0  0  0  0
 16 24  1  0  0  0  0
 17 18  2  0  0  0  0
 17 38  1  0  0  0  0
 18 19  1  0  0  0  0
 18 22  1  0  0  0  0
 19 20  1  0  0  0  0
 20 21  1  0  0  0  0
 21 39  1  0  0  0  0
 21 40  1  0  0  0  0
 21 41  1  0  0  0  0
 22 23  1  0  0  0  0
 23 42  1  0  0  0  0
 23 43  1  0  0  0  0
 23 44  1  0  0  0  0
 24 25  1  0  0  0  0
 24 26  1  0  0  0  0
 24 27  1  0  0  0  0
 25 45  1  0  0  0  0
 25 46  1  0  0  0  0
 25 47  1  0  0  0  0
 26 48  1  0  0  0  0
 26 49  1  0  0  0  0
 26 50  1  0  0  0  0
 27 51  1  0  0  0  0
 27 52  1  0  0  0  0
 27 53  1  0  0  0  0
M  CHG  1  54  -1
M  END
$$$$
ZINC03856984
  -OEChem-08230709463D

 52 53  0     1  0  0  0  0  0999 V2000
    5.4053   -2.0775    5.1779 C   0  0  0  0  0  0  0  0  0  0  0  0
    4.3817   -1.0029    4.8055 C   0  0  1  0  0  0  0  0  0  0  0  0
    4.6361   -0.5801    3.8336 H   0  0  0  0  0  0  0  0  0  0  0  0
    2.9868   -1.6281    4.7405 C   0  0  1  0  0  0  0  0  0  0  0  0
    2.9992   -2.4734    4.0526 H   0  0  0  0  0  0  0  0  0  0  0  0
    2.5848   -2.1031    6.1130 C   0  0  0  0  0  0  0  0  0  0  0  0
    1.5965   -1.6530    6.6427 O   0  0  0  0  0  0  0  0  0  0  0  0
    2.0253   -0.6285    4.2687 N   0  0  0  0  0  0  0  0  0  0  0  0
    0.8577   -1.0324    3.6416 C   0  0  0  0  0  0  0  0  0  0  0  0
   -0.1235   -0.2978    3.1505 N   0  0  0  0  0  0  0  0  0  0  0  0
   -1.1828   -0.8613    2.5742 C   0  0  0  0  0  0  0  0  0  0  0  0
   -1.2560   -2.2228    2.4958 C   0  0  0  0  0  0  0  0  0  0  0  0
    0.2815   -2.6856    3.2823 S   0  0  0  0  0  0  0  0  0  0  0  0
   -2.2751   -0.0196    2.0283 C   0  0  0  0  0  0  0  0  0  0  0  0
   -3.6046   -0.3260    2.3150 C   0  0  0  0  0  0  0  0  0  0  0  0
   -4.6192    0.4589    1.8063 C   0  0  0  0  0  0  0  0  0  0  0  0
   -4.3236    1.5516    1.0108 C   0  0  0  0  0  0  0  0  0  0  0  0
   -3.0053    1.8699    0.7233 C   0  0  0  0  0  0  0  0  0  0  0  0
   -1.9757    1.0831    1.2255 C   0  0  0  0  0  0  0  0  0  0  0  0
   -0.6817    1.3890    0.9409 O   0  0  0  0  0  0  0  0  0  0  0  0
   -0.1172    0.7957   -0.2302 C   0  0  0  0  0  0  0  0  0  0  0  0
   -2.7199    2.9484   -0.0545 O   0  0  0  0  0  0  0  0  0  0  0  0
   -3.8275    3.7121   -0.5362 C   0  0  0  0  0  0  0  0  0  0  0  0
   -6.0551    0.1242    2.1181 C   0  0  0  0  0  0  0  0  0  0  0  0
   -6.2726    0.1709    3.6318 C   0  0  0  0  0  0  0  0  0  0  0  0
   -6.9749    1.1410    1.4390 C   0  0  0  0  0  0  0  0  0  0  0  0
   -6.3758   -1.2793    1.5999 C   0  0  0  0  0  0  0  0  0  0  0  0
    4.3952    0.0302    5.7927 O   0  0  0  0  0  0  0  0  0  0  0  0
    5.3950   -2.8655    4.4249 H   0  0  0  0  0  0  0  0  0  0  0  0
    6.3991   -1.6321    5.2242 H   0  0  0  0  0  0  0  0  0  0  0  0
    5.1510   -2.5003    6.1498 H   0  0  0  0  0  0  0  0  0  0  0  0
    2.2060    0.3160    4.3953 H   0  0  0  0  0  0  0  0  0  0  0  0
   -2.0291   -2.8478    2.0738 H   0  0  0  0  0  0  0  0  0  0  0  0
   -3.8406   -1.1782    2.9352 H   0  0  0  0  0  0  0  0  0  0  0  0
   -5.1227    2.1616    0.6160 H   0  0  0  0  0  0  0  0  0  0  0  0
   -0.1481   -0.2900   -0.1383 H   0  0  0  0  0  0  0  0  0  0  0  0
    0.9170    1.1217   -0.3403 H   0  0  0  0  0  0  0  0  0  0  0  0
   -0.6901    1.1027   -1.1052 H   0  0  0  0  0  0  0  0  0  0  0  0
   -3.4613    4.5411   -1.1418 H   0  0  0  0  0  0  0  0  0  0  0  0
   -4.4713    3.0755   -1.1431 H   0  0  0  0  0  0  0  0  0  0  0  0
   -4.3948    4.1023    0.3088 H   0  0  0  0  0  0  0  0  0  0  0  0
   -6.0442    1.1708    4.0010 H   0  0  0  0  0  0  0  0  0  0  0  0
   -7.3112   -0.0712    3.8573 H   0  0  0  0  0  0  0  0  0  0  0  0
   -5.6174   -0.5535    4.1156 H   0  0  0  0  0  0  0  0  0  0  0  0
   -6.8199    1.1077    0.3606 H   0  0  0  0  0  0  0  0  0  0  0  0
   -8.0134    0.8989    1.6645 H   0  0  0  0  0  0  0  0  0  0  0  0
   -6.7464    2.1408    1.8082 H   0  0  0  0  0  0  0  0  0  0  0  0
   -5.7205   -2.0037    2.0837 H   0  0  0  0  0  0  0  0  0  0  0  0
   -7.4143   -1.5214    1.8254 H   0  0  0  0  0  0  0  0  0  0  0  0
   -6.2208   -1.3126    0.5215 H   0  0  0  0  0  0  0  0  0  0  0  0
    4.1774   -0.2747    6.6842 H   0  0  0  0  0  0  0  0  0  0  0  0
    3.3246   -3.0263    6.7471 O   0  5  0  0  0  0  0  0  0  0  0  0
  1  2  1  0  0  0  0
  1 29  1  0  0  0  0
  1 30  1  0  0  0  0
  1 31  1  0  0  0  0
  2  3  1  0  0  0  0
  2  4  1  0  0  0  0
  2 28  1  0  0  0  0
  4  5  1  0  0  0  0
  4  6  1  0  0  0  0
  4  8  1  0  0  0  0
  6  7  2  0  0  0  0
  6 52  1  0  0  0  0
  8  9  1  0  0  0  0
  8 32  1  0  0  0  0
  9 13  1  0  0  0  0
  9 10  2  0  0  0  0
 10 11  1  0  0  0  0
 11 12  2  0  0  0  0
 11 14  1  0  0  0  0
 12 13  1  0  0  0  0
 12 33  1  0  0  0  0
 14 19  2  0  0  0  0
 14 15  1  0  0  0  0
 15 16  2  0  0  0  0
 15 34  1  0  0  0  0
 16 17  1  0  0  0  0
 16 24  1  0  0  0  0
 17 18  2  0  0  0  0
 17 35  1  0  0  0  0
 18 19  1  0  0  0  0
 18 22  1  0  0  0  0
 19 20  1  0  0  0  0
 20 21  1  0  0  0  0
 21 36  1  0  0  0  0
 21 37  1  0  0  0  0
 21 38  1  0  0  0  0
 22 23  1  0  0  0  0
 23 39  1  0  0  0  0
 23 40  1  0  0  0  0
 23 41  1  0  0  0  0
 24 25  1  0  0  0  0
 24 26  1  0  0  0  0
 24 27  1  0  0  0  0
 25 42  1  0  0  0  0
 25 43  1  0  0  0  0
 25 44  1  0  0  0  0
 26 45  1  0  0  0  0
 26 46  1  0  0  0  0
 26 47  1  0  0  0  0
 27 48  1  0  0  0  0
 27 49  1  0  0  0  0
 27 50  1  0  0  0  0
 28 51  1  0  0  0  0
M  CHG  1  52  -1
M  END
$$$$
ZINC03856985
  -OEChem-08230709463D

 52 53  0     1  0  0  0  0  0999 V2000
   -0.4474    6.6680   -2.2833 C   0  0  0  0  0  0  0  0  0  0  0  0
   -0.2360    7.7946   -1.2699 C   0  0  2  0  0  0  0  0  0  0  0  0
    0.2787    8.6255   -1.7524 H   0  0  0  0  0  0  0  0  0  0  0  0
    0.6094    7.2793   -0.1034 C   0  0  1  0  0  0  0  0  0  0  0  0
    1.6063    7.0235   -0.4624 H   0  0  0  0  0  0  0  0  0  0  0  0
    0.7149    8.3499    0.9519 C   0  0  0  0  0  0  0  0  0  0  0  0
    0.3036    8.1401    2.0685 O   0  0  0  0  0  0  0  0  0  0  0  0
   -0.0235    6.0890    0.4700 N   0  0  0  0  0  0  0  0  0  0  0  0
    0.7429    5.1566    1.1503 C   0  0  0  0  0  0  0  0  0  0  0  0
    0.3678    4.0324    1.7327 N   0  0  0  0  0  0  0  0  0  0  0  0
    1.2504    3.2484    2.3476 C   0  0  0  0  0  0  0  0  0  0  0  0
    2.5647    3.6182    2.3799 C   0  0  0  0  0  0  0  0  0  0  0  0
    2.5011    5.1565    1.4711 S   0  0  0  0  0  0  0  0  0  0  0  0
    0.8101    1.9893    2.9960 C   0  0  0  0  0  0  0  0  0  0  0  0
    1.2402    1.6788    4.2854 C   0  0  0  0  0  0  0  0  0  0  0  0
    0.8289    0.5069    4.8869 C   0  0  0  0  0  0  0  0  0  0  0  0
   -0.0105   -0.3643    4.2156 C   0  0  0  0  0  0  0  0  0  0  0  0
   -0.4495   -0.0639    2.9354 C   0  0  0  0  0  0  0  0  0  0  0  0
   -0.0370    1.1106    2.3177 C   0  0  0  0  0  0  0  0  0  0  0  0
   -0.4611    1.4057    1.0598 O   0  0  0  0  0  0  0  0  0  0  0  0
    0.3487    0.9435   -0.0231 C   0  0  0  0  0  0  0  0  0  0  0  0
   -1.2790   -0.9211    2.2820 O   0  0  0  0  0  0  0  0  0  0  0  0
   -1.6625   -2.1092    2.9773 C   0  0  0  0  0  0  0  0  0  0  0  0
    1.2962    0.1745    6.2805 C   0  0  0  0  0  0  0  0  0  0  0  0
    0.8379    1.2688    7.2467 C   0  0  0  0  0  0  0  0  0  0  0  0
    0.7017   -1.1678    6.7112 C   0  0  0  0  0  0  0  0  0  0  0  0
    2.8235    0.0852    6.2985 C   0  0  0  0  0  0  0  0  0  0  0  0
   -1.5028    8.2388   -0.7803 O   0  0  0  0  0  0  0  0  0  0  0  0
   -0.9621    5.8371   -1.8007 H   0  0  0  0  0  0  0  0  0  0  0  0
   -1.0497    7.0350   -3.1143 H   0  0  0  0  0  0  0  0  0  0  0  0
    0.5190    6.3291   -2.6567 H   0  0  0  0  0  0  0  0  0  0  0  0
   -0.9791    5.9537    0.3734 H   0  0  0  0  0  0  0  0  0  0  0  0
    3.4100    3.1184    2.8295 H   0  0  0  0  0  0  0  0  0  0  0  0
    1.8957    2.3555    4.8135 H   0  0  0  0  0  0  0  0  0  0  0  0
   -0.3285   -1.2797    4.6924 H   0  0  0  0  0  0  0  0  0  0  0  0
    0.4196   -0.1436    0.0146 H   0  0  0  0  0  0  0  0  0  0  0  0
    1.3460    1.3757    0.0587 H   0  0  0  0  0  0  0  0  0  0  0  0
   -0.1019    1.2456   -0.9685 H   0  0  0  0  0  0  0  0  0  0  0  0
   -0.7734   -2.6907    3.2209 H   0  0  0  0  0  0  0  0  0  0  0  0
   -2.1838   -1.8403    3.8960 H   0  0  0  0  0  0  0  0  0  0  0  0
   -2.3230   -2.7028    2.3452 H   0  0  0  0  0  0  0  0  0  0  0  0
   -0.2501    1.3325    7.2339 H   0  0  0  0  0  0  0  0  0  0  0  0
    1.1759    1.0284    8.2547 H   0  0  0  0  0  0  0  0  0  0  0  0
    1.2615    2.2251    6.9399 H   0  0  0  0  0  0  0  0  0  0  0  0
    1.0282   -1.9474    6.0229 H   0  0  0  0  0  0  0  0  0  0  0  0
    1.0397   -1.4082    7.7192 H   0  0  0  0  0  0  0  0  0  0  0  0
   -0.3864   -1.1042    6.6984 H   0  0  0  0  0  0  0  0  0  0  0  0
    3.2470    1.0415    5.9917 H   0  0  0  0  0  0  0  0  0  0  0  0
    3.1615   -0.1552    7.3065 H   0  0  0  0  0  0  0  0  0  0  0  0
    3.1500   -0.6944    5.6102 H   0  0  0  0  0  0  0  0  0  0  0  0
   -2.0171    7.5497   -0.3377 H   0  0  0  0  0  0  0  0  0  0  0  0
    1.2658    9.5365    0.6515 O   0  5  0  0  0  0  0  0  0  0  0  0
  1  2  1  0  0  0  0
  1 29  1  0  0  0  0
  1 30  1  0  0  0  0
  1 31  1  0  0  0  0
  2  3  1  0  0  0  0
  2  4  1  0  0  0  0
  2 28  1  0  0  0  0
  4  5  1  0  0  0  0
  4  6  1  0  0  0  0
  4  8  1  0  0  0  0
  6  7  2  0  0  0  0
  6 52  1  0  0  0  0
  8  9  1  0  0  0  0
  8 32  1  0  0  0  0
  9 13  1  0  0  0  0
  9 10  2  0  0  0  0
 10 11  1  0  0  0  0
 11 12  2  0  0  0  0
 11 14  1  0  0  0  0
 12 13  1  0  0  0  0
 12 33  1  0  0  0  0
 14 19  2  0  0  0  0
 14 15  1  0  0  0  0
 15 16  2  0  0  0  0
 15 34  1  0  0  0  0
 16 17  1  0  0  0  0
 16 24  1  0  0  0  0
 17 18  2  0  0  0  0
 17 35  1  0  0  0  0
 18 19  1  0  0  0  0
 18 22  1  0  0  0  0
 19 20  1  0  0  0  0
 20 21  1  0  0  0  0
 21 36  1  0  0  0  0
 21 37  1  0  0  0  0
 21 38  1  0  0  0  0
 22 23  1  0  0  0  0
 23 39  1  0  0  0  0
 23 40  1  0  0  0  0
 23 41  1  0  0  0  0
 24 25  1  0  0  0  0
 24 26  1  0  0  0  0
 24 27  1  0  0  0  0
 25 42  1  0  0  0  0
 25 43  1  0  0  0  0
 25 44  1  0  0  0  0
 26 45  1  0  0  0  0
 26 46  1  0  0  0  0
 26 47  1  0  0  0  0
 27 48  1  0  0  0  0
 27 49  1  0  0  0  0
 27 50  1  0  0  0  0
 28 51  1  0  0  0  0
M  CHG  1  52  -1
M  END
$$$$
ZINC03856986
  -OEChem-08230709463D

 52 53  0     1  0  0  0  0  0999 V2000
    2.8315   -1.1180    1.7353 C   0  0  0  0  0  0  0  0  0  0  0  0
    1.5000   -1.7672    2.1180 C   0  0  1  0  0  0  0  0  0  0  0  0
    1.6568   -2.8270    2.3187 H   0  0  0  0  0  0  0  0  0  0  0  0
    0.9429   -1.0878    3.3706 C   0  0  2  0  0  0  0  0  0  0  0  0
    0.7860   -0.0280    3.1699 H   0  0  0  0  0  0  0  0  0  0  0  0
    1.9225   -1.2447    4.5049 C   0  0  0  0  0  0  0  0  0  0  0  0
    1.5898   -1.8169    5.5158 O   0  0  0  0  0  0  0  0  0  0  0  0
   -0.3321   -1.7094    3.7371 N   0  0  0  0  0  0  0  0  0  0  0  0
   -1.5080   -1.2804    3.1431 C   0  0  0  0  0  0  0  0  0  0  0  0
   -2.7428   -1.7094    3.3298 N   0  0  0  0  0  0  0  0  0  0  0  0
   -3.7653   -1.1720    2.6684 C   0  0  0  0  0  0  0  0  0  0  0  0
   -3.5288   -0.1680    1.7732 C   0  0  0  0  0  0  0  0  0  0  0  0
   -1.7541   -0.0050    1.9155 S   0  0  0  0  0  0  0  0  0  0  0  0
   -5.1461   -1.6631    2.8960 C   0  0  0  0  0  0  0  0  0  0  0  0
   -5.9766   -1.9435    1.8118 C   0  0  0  0  0  0  0  0  0  0  0  0
   -7.2592   -2.4054    2.0261 C   0  0  0  0  0  0  0  0  0  0  0  0
   -7.7309   -2.5814    3.3148 C   0  0  0  0  0  0  0  0  0  0  0  0
   -6.9164   -2.3011    4.4010 C   0  0  0  0  0  0  0  0  0  0  0  0
   -5.6211   -1.8410    4.1970 C   0  0  0  0  0  0  0  0  0  0  0  0
   -4.8195   -1.5645    5.2602 O   0  0  0  0  0  0  0  0  0  0  0  0
   -4.8624   -0.2326    5.7761 C   0  0  0  0  0  0  0  0  0  0  0  0
   -7.3847   -2.4768    5.6657 O   0  0  0  0  0  0  0  0  0  0  0  0
   -8.7254   -2.9524    5.8008 C   0  0  0  0  0  0  0  0  0  0  0  0
   -8.1519   -2.7132    0.8516 C   0  0  0  0  0  0  0  0  0  0  0  0
   -9.5118   -3.1983    1.3580 C   0  0  0  0  0  0  0  0  0  0  0  0
   -8.3421   -1.4494    0.0105 C   0  0  0  0  0  0  0  0  0  0  0  0
   -7.5081   -3.8045   -0.0060 C   0  0  0  0  0  0  0  0  0  0  0  0
    0.5710   -1.6184    1.0424 O   0  0  0  0  0  0  0  0  0  0  0  0
    3.5401   -1.2315    2.5557 H   0  0  0  0  0  0  0  0  0  0  0  0
    3.2284   -1.6020    0.8429 H   0  0  0  0  0  0  0  0  0  0  0  0
    2.6747   -0.0582    1.5345 H   0  0  0  0  0  0  0  0  0  0  0  0
   -0.3531   -2.4213    4.3956 H   0  0  0  0  0  0  0  0  0  0  0  0
   -4.2228    0.3771    1.1506 H   0  0  0  0  0  0  0  0  0  0  0  0
   -5.6147   -1.8031    0.8040 H   0  0  0  0  0  0  0  0  0  0  0  0
   -8.7373   -2.9390    3.4752 H   0  0  0  0  0  0  0  0  0  0  0  0
   -4.1778   -0.1476    6.6199 H   0  0  0  0  0  0  0  0  0  0  0  0
   -4.5666    0.4689    4.9961 H   0  0  0  0  0  0  0  0  0  0  0  0
   -5.8757   -0.0032    6.1058 H   0  0  0  0  0  0  0  0  0  0  0  0
   -9.4104   -2.2471    5.3302 H   0  0  0  0  0  0  0  0  0  0  0  0
   -8.8164   -3.9250    5.3171 H   0  0  0  0  0  0  0  0  0  0  0  0
   -8.9722   -3.0480    6.8582 H   0  0  0  0  0  0  0  0  0  0  0  0
   -9.9704   -2.4209    1.9690 H   0  0  0  0  0  0  0  0  0  0  0  0
  -10.1574   -3.4210    0.5085 H   0  0  0  0  0  0  0  0  0  0  0  0
   -9.3762   -4.0987    1.9572 H   0  0  0  0  0  0  0  0  0  0  0  0
   -7.3734   -1.1038   -0.3502 H   0  0  0  0  0  0  0  0  0  0  0  0
   -8.9878   -1.6721   -0.8390 H   0  0  0  0  0  0  0  0  0  0  0  0
   -8.8008   -0.6720    0.6215 H   0  0  0  0  0  0  0  0  0  0  0  0
   -7.3726   -4.7049    0.5932 H   0  0  0  0  0  0  0  0  0  0  0  0
   -8.1538   -4.0272   -0.8555 H   0  0  0  0  0  0  0  0  0  0  0  0
   -6.5394   -3.4589   -0.3668 H   0  0  0  0  0  0  0  0  0  0  0  0
   -0.2971   -2.0075    1.2158 H   0  0  0  0  0  0  0  0  0  0  0  0
    3.1647   -0.7486    4.3923 O   0  5  0  0  0  0  0  0  0  0  0  0
  1  2  1  0  0  0  0
  1 29  1  0  0  0  0
  1 30  1  0  0  0  0
  1 31  1  0  0  0  0
  2  3  1  0  0  0  0
  2  4  1  0  0  0  0
  2 28  1  0  0  0  0
  4  5  1  0  0  0  0
  4  6  1  0  0  0  0
  4  8  1  0  0  0  0
  6  7  2  0  0  0  0
  6 52  1  0  0  0  0
  8  9  1  0  0  0  0
  8 32  1  0  0  0  0
  9 13  1  0  0  0  0
  9 10  2  0  0  0  0
 10 11  1  0  0  0  0
 11 12  2  0  0  0  0
 11 14  1  0  0  0  0
 12 13  1  0  0  0  0
 12 33  1  0  0  0  0
 14 19  2  0  0  0  0
 14 15  1  0  0  0  0
 15 16  2  0  0  0  0
 15 34  1  0  0  0  0
 16 17  1  0  0  0  0
 16 24  1  0  0  0  0
 17 18  2  0  0  0  0
 17 35  1  0  0  0  0
 18 19  1  0  0  0  0
 18 22  1  0  0  0  0
 19 20  1  0  0  0  0
 20 21  1  0  0  0  0
 21 36  1  0  0  0  0
 21 37  1  0  0  0  0
 21 38  1  0  0  0  0
 22 23  1  0  0  0  0
 23 39  1  0  0  0  0
 23 40  1  0  0  0  0
 23 41  1  0  0  0  0
 24 25  1  0  0  0  0
 24 26  1  0  0  0  0
 24 27  1  0  0  0  0
 25 42  1  0  0  0  0
 25 43  1  0  0  0  0
 25 44  1  0  0  0  0
 26 45  1  0  0  0  0
 26 46  1  0  0  0  0
 26 47  1  0  0  0  0
 27 48  1  0  0  0  0
 27 49  1  0  0  0  0
 27 50  1  0  0  0  0
 28 51  1  0  0  0  0
M  CHG  1  52  -1
M  END
$$$$
ZINC03856987
  -OEChem-08230709463D

 52 53  0     1  0  0  0  0  0999 V2000
    1.8810   -0.8274    2.1259 C   0  0  0  0  0  0  0  0  0  0  0  0
    1.7256    0.3012    3.1472 C   0  0  2  0  0  0  0  0  0  0  0  0
    1.9463   -0.0786    4.1448 H   0  0  0  0  0  0  0  0  0  0  0  0
    0.2903    0.8297    3.1088 C   0  0  2  0  0  0  0  0  0  0  0  0
    0.0695    1.2095    2.1112 H   0  0  0  0  0  0  0  0  0  0  0  0
    0.1372    1.9413    4.1148 C   0  0  0  0  0  0  0  0  0  0  0  0
   -0.6654    1.8378    5.0120 O   0  0  0  0  0  0  0  0  0  0  0  0
   -0.6385   -0.2553    3.4348 N   0  0  0  0  0  0  0  0  0  0  0  0
   -1.9473   -0.2061    2.9830 C   0  0  0  0  0  0  0  0  0  0  0  0
   -2.9271   -1.0722    3.1662 N   0  0  0  0  0  0  0  0  0  0  0  0
   -4.1371   -0.8607    2.6535 C   0  0  0  0  0  0  0  0  0  0  0  0
   -4.3663    0.2722    1.9260 C   0  0  0  0  0  0  0  0  0  0  0  0
   -2.7586    1.0503    2.0046 S   0  0  0  0  0  0  0  0  0  0  0  0
   -5.2253   -1.8449    2.8703 C   0  0  0  0  0  0  0  0  0  0  0  0
   -6.0186   -2.2578    1.8008 C   0  0  0  0  0  0  0  0  0  0  0  0
   -7.0267   -3.1780    2.0039 C   0  0  0  0  0  0  0  0  0  0  0  0
   -7.2627   -3.6861    3.2690 C   0  0  0  0  0  0  0  0  0  0  0  0
   -6.4844   -3.2789    4.3415 C   0  0  0  0  0  0  0  0  0  0  0  0
   -5.4627   -2.3571    4.1475 C   0  0  0  0  0  0  0  0  0  0  0  0
   -4.6975   -1.9551    5.1973 O   0  0  0  0  0  0  0  0  0  0  0  0
   -5.1473   -0.8124    5.9280 C   0  0  0  0  0  0  0  0  0  0  0  0
   -6.7203   -3.7818    5.5829 O   0  0  0  0  0  0  0  0  0  0  0  0
   -7.7863   -4.7251    5.7090 C   0  0  0  0  0  0  0  0  0  0  0  0
   -7.8781   -3.6266    0.8442 C   0  0  0  0  0  0  0  0  0  0  0  0
   -8.9180   -4.6358    1.3353 C   0  0  0  0  0  0  0  0  0  0  0  0
   -8.5896   -2.4165    0.2357 C   0  0  0  0  0  0  0  0  0  0  0  0
   -6.9913   -4.2830   -0.2157 C   0  0  0  0  0  0  0  0  0  0  0  0
    2.6315    1.3595    2.8292 O   0  0  0  0  0  0  0  0  0  0  0  0
    1.6602   -0.4476    1.1284 H   0  0  0  0  0  0  0  0  0  0  0  0
    2.9035   -1.2039    2.1533 H   0  0  0  0  0  0  0  0  0  0  0  0
    1.1899   -1.6347    2.3685 H   0  0  0  0  0  0  0  0  0  0  0  0
   -0.3372   -1.0082    3.9671 H   0  0  0  0  0  0  0  0  0  0  0  0
   -5.2709    0.6078    1.4407 H   0  0  0  0  0  0  0  0  0  0  0  0
   -5.8412   -1.8608    0.8122 H   0  0  0  0  0  0  0  0  0  0  0  0
   -8.0561   -4.4028    3.4216 H   0  0  0  0  0  0  0  0  0  0  0  0
   -5.2030    0.0471    5.2601 H   0  0  0  0  0  0  0  0  0  0  0  0
   -6.1342   -1.0132    6.3449 H   0  0  0  0  0  0  0  0  0  0  0  0
   -4.4478   -0.5997    6.7365 H   0  0  0  0  0  0  0  0  0  0  0  0
   -7.5833   -5.5894    5.0766 H   0  0  0  0  0  0  0  0  0  0  0  0
   -7.8667   -5.0457    6.7476 H   0  0  0  0  0  0  0  0  0  0  0  0
   -8.7218   -4.2596    5.3989 H   0  0  0  0  0  0  0  0  0  0  0  0
   -9.5498   -4.1682    2.0904 H   0  0  0  0  0  0  0  0  0  0  0  0
   -9.5338   -4.9603    0.4965 H   0  0  0  0  0  0  0  0  0  0  0  0
   -8.4111   -5.4979    1.7688 H   0  0  0  0  0  0  0  0  0  0  0  0
   -7.8488   -1.6975   -0.1142 H   0  0  0  0  0  0  0  0  0  0  0  0
   -9.2054   -2.7410   -0.6031 H   0  0  0  0  0  0  0  0  0  0  0  0
   -9.2214   -1.9489    0.9908 H   0  0  0  0  0  0  0  0  0  0  0  0
   -6.4844   -5.1451    0.2178 H   0  0  0  0  0  0  0  0  0  0  0  0
   -7.6071   -4.6075   -1.0545 H   0  0  0  0  0  0  0  0  0  0  0  0
   -6.2505   -3.5640   -0.5656 H   0  0  0  0  0  0  0  0  0  0  0  0
    3.5619    1.0959    2.8347 H   0  0  0  0  0  0  0  0  0  0  0  0
    0.8963    3.0440    4.0172 O   0  5  0  0  0  0  0  0  0  0  0  0
  1  2  1  0  0  0  0
  1 29  1  0  0  0  0
  1 30  1  0  0  0  0
  1 31  1  0  0  0  0
  2  3  1  0  0  0  0
  2  4  1  0  0  0  0
  2 28  1  0  0  0  0
  4  5  1  0  0  0  0
  4  6  1  0  0  0  0
  4  8  1  0  0  0  0
  6  7  2  0  0  0  0
  6 52  1  0  0  0  0
  8  9  1  0  0  0  0
  8 32  1  0  0  0  0
  9 13  1  0  0  0  0
  9 10  2  0  0  0  0
 10 11  1  0  0  0  0
 11 12  2  0  0  0  0
 11 14  1  0  0  0  0
 12 13  1  0  0  0  0
 12 33  1  0  0  0  0
 14 19  2  0  0  0  0
 14 15  1  0  0  0  0
 15 16  2  0  0  0  0
 15 34  1  0  0  0  0
 16 17  1  0  0  0  0
 16 24  1  0  0  0  0
 17 18  2  0  0  0  0
 17 35  1  0  0  0  0
 18 19  1  0  0  0  0
 18 22  1  0  0  0  0
 19 20  1  0  0  0  0
 20 21  1  0  0  0  0
 21 36  1  0  0  0  0
 21 37  1  0  0  0  0
 21 38  1  0  0  0  0
 22 23  1  0  0  0  0
 23 39  1  0  0  0  0
 23 40  1  0  0  0  0
 23 41  1  0  0  0  0
 24 25  1  0  0  0  0
 24 26  1  0  0  0  0
 24 27  1  0  0  0  0
 25 42  1  0  0  0  0
 25 43  1  0  0  0  0
 25 44  1  0  0  0  0
 26 45  1  0  0  0  0
 26 46  1  0  0  0  0
 26 47  1  0  0  0  0
 27 48  1  0  0  0  0
 27 49  1  0  0  0  0
 27 50  1  0  0  0  0
 28 51  1  0  0  0  0
M  CHG  1  52  -1
M  END
$$$$
ZINC03856988
  -OEChem-08230709463D

 54 55  0     1  0  0  0  0  0999 V2000
   -0.0686    0.1486   -4.7900 C   0  0  0  0  0  0  0  0  0  0  0  0
   -0.0385   -0.7867   -3.5795 C   0  0  0  0  0  0  0  0  0  0  0  0
   -0.0319   -0.0118   -2.3789 O   0  0  0  0  0  0  0  0  0  0  0  0
   -0.0057   -0.6951   -1.2032 C   0  0  0  0  0  0  0  0  0  0  0  0
    0.0189   -2.0815   -1.2071 C   0  0  0  0  0  0  0  0  0  0  0  0
    0.0392   -2.7814   -0.0143 C   0  0  0  0  0  0  0  0  0  0  0  0
    0.0414   -2.1053    1.1892 C   0  0  0  0  0  0  0  0  0  0  0  0
    0.0231   -0.7117    1.2061 C   0  0  0  0  0  0  0  0  0  0  0  0
    0.0021   -0.0041    0.0020 C   0  0  0  0  0  0  0  0  0  0  0  0
   -0.0164    1.3557    0.0095 O   0  0  0  0  0  0  0  0  0  0  0  0
    1.2479    2.0217    0.0010 C   0  0  0  0  0  0  0  0  0  0  0  0
    1.0269    3.5356    0.0112 C   0  0  0  0  0  0  0  0  0  0  0  0
    0.0255    0.0171    2.4978 C   0  0  0  0  0  0  0  0  0  0  0  0
    0.0408   -0.6703    3.6779 C   0  0  0  0  0  0  0  0  0  0  0  0
    0.0381    0.6794    4.8504 S   0  0  0  0  0  0  0  0  0  0  0  0
    0.0084    2.0123    3.6603 C   0  0  0  0  0  0  0  0  0  0  0  0
    0.0071    1.3479    2.5191 N   0  0  0  0  0  0  0  0  0  0  0  0
   -0.0080    3.3805    3.8774 N   0  0  0  0  0  0  0  0  0  0  0  0
   -0.0028    3.9052    5.2453 C   0  0  1  0  0  0  0  0  0  0  0  0
   -0.5776    3.2415    5.8912 H   0  0  0  0  0  0  0  0  0  0  0  0
    1.4378    3.9898    5.7535 C   0  0  0  0  0  0  0  0  0  0  0  0
   -0.6217    5.2792    5.2586 C   0  0  0  0  0  0  0  0  0  0  0  0
   -1.0257    5.7698    4.2311 O   0  0  0  0  0  0  0  0  0  0  0  0
    0.0596   -4.2882   -0.0285 C   0  0  0  0  0  0  0  0  0  0  0  0
   -1.1757   -4.8218    0.6997 C   0  0  0  0  0  0  0  0  0  0  0  0
    0.0526   -4.7847   -1.4757 C   0  0  0  0  0  0  0  0  0  0  0  0
    1.3225   -4.7879    0.6760 C   0  0  0  0  0  0  0  0  0  0  0  0
   -0.9666    0.7651   -4.7505 H   0  0  0  0  0  0  0  0  0  0  0  0
    0.8130    0.7894   -4.7760 H   0  0  0  0  0  0  0  0  0  0  0  0
   -0.0737   -0.4425   -5.7058 H   0  0  0  0  0  0  0  0  0  0  0  0
    0.8595   -1.4033   -3.6190 H   0  0  0  0  0  0  0  0  0  0  0  0
   -0.9201   -1.4275   -3.5935 H   0  0  0  0  0  0  0  0  0  0  0  0
    0.0172   -2.6170   -2.1451 H   0  0  0  0  0  0  0  0  0  0  0  0
    0.0577   -2.6562    2.1179 H   0  0  0  0  0  0  0  0  0  0  0  0
    1.8173    1.7316    0.8840 H   0  0  0  0  0  0  0  0  0  0  0  0
    1.8003    1.7412   -0.8958 H   0  0  0  0  0  0  0  0  0  0  0  0
    0.4575    3.8256   -0.8718 H   0  0  0  0  0  0  0  0  0  0  0  0
    0.4745    3.8161    0.9081 H   0  0  0  0  0  0  0  0  0  0  0  0
    1.9913    4.0436    0.0048 H   0  0  0  0  0  0  0  0  0  0  0  0
    0.0524   -1.7357    3.8541 H   0  0  0  0  0  0  0  0  0  0  0  0
   -0.0230    3.9911    3.1239 H   0  0  0  0  0  0  0  0  0  0  0  0
    2.0126    4.6535    5.1076 H   0  0  0  0  0  0  0  0  0  0  0  0
    1.4417    4.3801    6.7712 H   0  0  0  0  0  0  0  0  0  0  0  0
    1.8855    2.9960    5.7439 H   0  0  0  0  0  0  0  0  0  0  0  0
   -2.0754   -4.4659    0.1978 H   0  0  0  0  0  0  0  0  0  0  0  0
   -1.1609   -5.9117    0.6894 H   0  0  0  0  0  0  0  0  0  0  0  0
   -1.1707   -4.4681    1.7307 H   0  0  0  0  0  0  0  0  0  0  0  0
    0.9326   -4.4045   -1.9945 H   0  0  0  0  0  0  0  0  0  0  0  0
    0.0673   -5.8745   -1.4860 H   0  0  0  0  0  0  0  0  0  0  0  0
   -0.8471   -4.4287   -1.9776 H   0  0  0  0  0  0  0  0  0  0  0  0
    1.3274   -4.4341    1.7070 H   0  0  0  0  0  0  0  0  0  0  0  0
    1.3372   -5.8777    0.6657 H   0  0  0  0  0  0  0  0  0  0  0  0
    2.2025   -4.4077    0.1572 H   0  0  0  0  0  0  0  0  0  0  0  0
   -0.7241    5.9579    6.4121 O   0  5  0  0  0  0  0  0  0  0  0  0
  1  2  1  0  0  0  0
  1 28  1  0  0  0  0
  1 29  1  0  0  0  0
  1 30  1  0  0  0  0
  2  3  1  0  0  0  0
  2 31  1  0  0  0  0
  2 32  1  0  0  0  0
  3  4  1  0  0  0  0
  4  9  2  0  0  0  0
  4  5  1  0  0  0  0
  5  6  2  0  0  0  0
  5 33  1  0  0  0  0
  6  7  1  0  0  0  0
  6 24  1  0  0  0  0
  7  8  2  0  0  0  0
  7 34  1  0  0  0  0
  8  9  1  0  0  0  0
  8 13  1  0  0  0  0
  9 10  1  0  0  0  0
 10 11  1  0  0  0  0
 11 12  1  0  0  0  0
 11 35  1  0  0  0  0
 11 36  1  0  0  0  0
 12 37  1  0  0  0  0
 12 38  1  0  0  0  0
 12 39  1  0  0  0  0
 13 17  1  0  0  0  0
 13 14  2  0  0  0  0
 14 15  1  0  0  0  0
 14 40  1  0  0  0  0
 15 16  1  0  0  0  0
 16 17  2  0  0  0  0
 16 18  1  0  0  0  0
 18 19  1  0  0  0  0
 18 41  1  0  0  0  0
 19 20  1  0  0  0  0
 19 21  1  0  0  0  0
 19 22  1  0  0  0  0
 21 42  1  0  0  0  0
 21 43  1  0  0  0  0
 21 44  1  0  0  0  0
 22 23  2  0  0  0  0
 22 54  1  0  0  0  0
 24 25  1  0  0  0  0
 24 26  1  0  0  0  0
 24 27  1  0  0  0  0
 25 45  1  0  0  0  0
 25 46  1  0  0  0  0
 25 47  1  0  0  0  0
 26 48  1  0  0  0  0
 26 49  1  0  0  0  0
 26 50  1  0  0  0  0
 27 51  1  0  0  0  0
 27 52  1  0  0  0  0
 27 53  1  0  0  0  0
M  CHG  1  54  -1
M  END
$$$$
ZINC03856989
  -OEChem-08230709463D

 54 55  0     1  0  0  0  0  0999 V2000
   -0.0684    0.1486   -4.7900 C   0  0  0  0  0  0  0  0  0  0  0  0
   -0.0384   -0.7867   -3.5795 C   0  0  0  0  0  0  0  0  0  0  0  0
   -0.0318   -0.0118   -2.3789 O   0  0  0  0  0  0  0  0  0  0  0  0
   -0.0057   -0.6951   -1.2032 C   0  0  0  0  0  0  0  0  0  0  0  0
    0.0189   -2.0815   -1.2071 C   0  0  0  0  0  0  0  0  0  0  0  0
    0.0392   -2.7814   -0.0142 C   0  0  0  0  0  0  0  0  0  0  0  0
    0.0414   -2.1053    1.1892 C   0  0  0  0  0  0  0  0  0  0  0  0
    0.0231   -0.7117    1.2061 C   0  0  0  0  0  0  0  0  0  0  0  0
    0.0021   -0.0041    0.0020 C   0  0  0  0  0  0  0  0  0  0  0  0
   -0.0164    1.3557    0.0095 O   0  0  0  0  0  0  0  0  0  0  0  0
    1.2479    2.0217    0.0010 C   0  0  0  0  0  0  0  0  0  0  0  0
    1.0269    3.5356    0.0112 C   0  0  0  0  0  0  0  0  0  0  0  0
    0.0255    0.0171    2.4978 C   0  0  0  0  0  0  0  0  0  0  0  0
    0.0408   -0.6703    3.6779 C   0  0  0  0  0  0  0  0  0  0  0  0
    0.0381    0.6794    4.8504 S   0  0  0  0  0  0  0  0  0  0  0  0
    0.0084    2.0123    3.6602 C   0  0  0  0  0  0  0  0  0  0  0  0
    0.0071    1.3479    2.5191 N   0  0  0  0  0  0  0  0  0  0  0  0
   -0.0091    3.3805    3.8775 N   0  0  0  0  0  0  0  0  0  0  0  0
   -0.0036    3.9052    5.2453 C   0  0  2  0  0  0  0  0  0  0  0  0
    0.6012    3.2578    5.8803 H   0  0  0  0  0  0  0  0  0  0  0  0
   -1.4364    3.9500    5.7801 C   0  0  0  0  0  0  0  0  0  0  0  0
    0.5771    5.2958    5.2476 C   0  0  0  0  0  0  0  0  0  0  0  0
    0.9483    5.7972    4.2128 O   0  0  0  0  0  0  0  0  0  0  0  0
    0.0596   -4.2882   -0.0285 C   0  0  0  0  0  0  0  0  0  0  0  0
   -1.1757   -4.8218    0.6997 C   0  0  0  0  0  0  0  0  0  0  0  0
    0.0526   -4.7847   -1.4757 C   0  0  0  0  0  0  0  0  0  0  0  0
    1.3225   -4.7878    0.6760 C   0  0  0  0  0  0  0  0  0  0  0  0
   -0.9664    0.7652   -4.7506 H   0  0  0  0  0  0  0  0  0  0  0  0
    0.8132    0.7894   -4.7760 H   0  0  0  0  0  0  0  0  0  0  0  0
   -0.0735   -0.4425   -5.7058 H   0  0  0  0  0  0  0  0  0  0  0  0
    0.8595   -1.4033   -3.6190 H   0  0  0  0  0  0  0  0  0  0  0  0
   -0.9201   -1.4275   -3.5936 H   0  0  0  0  0  0  0  0  0  0  0  0
    0.0172   -2.6170   -2.1451 H   0  0  0  0  0  0  0  0  0  0  0  0
    0.0577   -2.6562    2.1179 H   0  0  0  0  0  0  0  0  0  0  0  0
    1.8173    1.7316    0.8840 H   0  0  0  0  0  0  0  0  0  0  0  0
    1.8003    1.7412   -0.8958 H   0  0  0  0  0  0  0  0  0  0  0  0
    0.4575    3.8256   -0.8718 H   0  0  0  0  0  0  0  0  0  0  0  0
    0.4745    3.8161    0.9081 H   0  0  0  0  0  0  0  0  0  0  0  0
    1.9913    4.0436    0.0048 H   0  0  0  0  0  0  0  0  0  0  0  0
    0.0528   -1.7357    3.8541 H   0  0  0  0  0  0  0  0  0  0  0  0
   -0.0249    3.9911    3.1239 H   0  0  0  0  0  0  0  0  0  0  0  0
   -1.8564    2.9441    5.7784 H   0  0  0  0  0  0  0  0  0  0  0  0
   -1.4323    4.3403    6.7978 H   0  0  0  0  0  0  0  0  0  0  0  0
   -2.0412    4.5973    5.1450 H   0  0  0  0  0  0  0  0  0  0  0  0
   -2.0754   -4.4658    0.1978 H   0  0  0  0  0  0  0  0  0  0  0  0
   -1.1609   -5.9117    0.6894 H   0  0  0  0  0  0  0  0  0  0  0  0
   -1.1707   -4.4681    1.7307 H   0  0  0  0  0  0  0  0  0  0  0  0
    0.9326   -4.4045   -1.9945 H   0  0  0  0  0  0  0  0  0  0  0  0
    0.0673   -5.8745   -1.4860 H   0  0  0  0  0  0  0  0  0  0  0  0
   -0.8471   -4.4287   -1.9776 H   0  0  0  0  0  0  0  0  0  0  0  0
    1.3274   -4.4341    1.7070 H   0  0  0  0  0  0  0  0  0  0  0  0
    1.3372   -5.8777    0.6657 H   0  0  0  0  0  0  0  0  0  0  0  0
    2.2025   -4.4077    0.1572 H   0  0  0  0  0  0  0  0  0  0  0  0
    0.6820    5.9774    6.3991 O   0  5  0  0  0  0  0  0  0  0  0  0
  1  2  1  0  0  0  0
  1 28  1  0  0  0  0
  1 29  1  0  0  0  0
  1 30  1  0  0  0  0
  2  3  1  0  0  0  0
  2 31  1  0  0  0  0
  2 32  1  0  0  0  0
  3  4  1  0  0  0  0
  4  9  2  0  0  0  0
  4  5  1  0  0  0  0
  5  6  2  0  0  0  0
  5 33  1  0  0  0  0
  6  7  1  0  0  0  0
  6 24  1  0  0  0  0
  7  8  2  0  0  0  0
  7 34  1  0  0  0  0
  8  9  1  0  0  0  0
  8 13  1  0  0  0  0
  9 10  1  0  0  0  0
 10 11  1  0  0  0  0
 11 12  1  0  0  0  0
 11 35  1  0  0  0  0
 11 36  1  0  0  0  0
 12 37  1  0  0  0  0
 12 38  1  0  0  0  0
 12 39  1  0  0  0  0
 13 17  1  0  0  0  0
 13 14  2  0  0  0  0
 14 15  1  0  0  0  0
 14 40  1  0  0  0  0
 15 16  1  0  0  0  0
 16 17  2  0  0  0  0
 16 18  1  0  0  0  0
 18 19  1  0  0  0  0
 18 41  1  0  0  0  0
 19 20  1  0  0  0  0
 19 21  1  0  0  0  0
 19 22  1  0  0  0  0
 21 42  1  0  0  0  0
 21 43  1  0  0  0  0
 21 44  1  0  0  0  0
 22 23  2  0  0  0  0
 22 54  1  0  0  0  0
 24 25  1  0  0  0  0
 24 26  1  0  0  0  0
 24 27  1  0  0  0  0
 25 45  1  0  0  0  0
 25 46  1  0  0  0  0
 25 47  1  0  0  0  0
 26 48  1  0  0  0  0
 26 49  1  0  0  0  0
 26 50  1  0  0  0  0
 27 51  1  0  0  0  0
 27 52  1  0  0  0  0
 27 53  1  0  0  0  0
M  CHG  1  54  -1
M  END
$$$$
ZINC03857331
  -OEChem-08230709463D

 52 54  0     1  0  0  0  0  0999 V2000
   -5.0076    1.3255    0.6571 C   0  0  0  0  0  0  0  0  0  0  0  0
   -3.6967    2.0583    0.5322 C   0  0  0  0  0  0  0  0  0  0  0  0
   -3.6714    3.4430    0.5892 C   0  0  0  0  0  0  0  0  0  0  0  0
   -2.4788    4.1291    0.4868 C   0  0  0  0  0  0  0  0  0  0  0  0
   -1.2912    3.4315    0.3098 C   0  0  0  0  0  0  0  0  0  0  0  0
   -1.3195    2.0316    0.2476 C   0  0  0  0  0  0  0  0  0  0  0  0
   -2.5261    1.3487    0.3621 C   0  0  0  0  0  0  0  0  0  0  0  0
   -0.0397    1.3084    0.0638 C   0  0  0  0  0  0  0  0  0  0  0  0
    0.0021   -0.0041    0.0020 N   0  0  0  0  0  0  0  0  0  0  0  0
   -1.1428   -0.7493   -0.5273 C   0  0  1  0  0  0  0  0  0  0  0  0
   -1.8676   -0.0518   -0.9471 H   0  0  0  0  0  0  0  0  0  0  0  0
   -0.6660   -1.7084   -1.6198 C   0  0  0  0  0  0  0  0  0  0  0  0
   -1.8617   -2.4867   -2.1726 C   0  0  0  0  0  0  0  0  0  0  0  0
   -0.0109   -0.9103   -2.7488 C   0  0  0  0  0  0  0  0  0  0  0  0
   -1.7880   -1.5354    0.5848 C   0  0  0  0  0  0  0  0  0  0  0  0
   -1.3378   -1.4790    1.7046 O   0  0  0  0  0  0  0  0  0  0  0  0
    1.1428    2.0942   -0.0491 C   0  0  0  0  0  0  0  0  0  0  0  0
    1.0536    3.4447    0.0198 C   0  0  0  0  0  0  0  0  0  0  0  0
   -0.1154    4.0859    0.1922 O   0  0  0  0  0  0  0  0  0  0  0  0
    2.2889    4.2434   -0.0996 C   0  0  0  0  0  0  0  0  0  0  0  0
    3.5205    3.6070   -0.2741 C   0  0  0  0  0  0  0  0  0  0  0  0
    4.6705    4.3565   -0.3905 C   0  0  0  0  0  0  0  0  0  0  0  0
    4.6082    5.7430   -0.3238 C   0  0  0  0  0  0  0  0  0  0  0  0
    3.3862    6.3796   -0.1446 C   0  0  0  0  0  0  0  0  0  0  0  0
    2.2308    5.6379   -0.0326 C   0  0  0  0  0  0  0  0  0  0  0  0
    5.7447    6.4778   -0.4338 O   0  0  0  0  0  0  0  0  0  0  0  0
    6.9665    5.7596   -0.6165 C   0  0  0  0  0  0  0  0  0  0  0  0
   -2.4670    5.6347    0.5499 C   0  0  0  0  0  0  0  0  0  0  0  0
   -5.2020    1.1050    1.7067 H   0  0  0  0  0  0  0  0  0  0  0  0
   -5.8106    1.9475    0.2617 H   0  0  0  0  0  0  0  0  0  0  0  0
   -4.9582    0.3940    0.0932 H   0  0  0  0  0  0  0  0  0  0  0  0
   -4.5932    3.9897    0.7227 H   0  0  0  0  0  0  0  0  0  0  0  0
   -2.5461    0.2698    0.3185 H   0  0  0  0  0  0  0  0  0  0  0  0
    0.0588   -2.4059   -1.1999 H   0  0  0  0  0  0  0  0  0  0  0  0
   -2.5865   -1.7892   -2.5924 H   0  0  0  0  0  0  0  0  0  0  0  0
   -1.5220   -3.1700   -2.9509 H   0  0  0  0  0  0  0  0  0  0  0  0
   -2.3284   -3.0553   -1.3682 H   0  0  0  0  0  0  0  0  0  0  0  0
   -0.7358   -0.2128   -3.1687 H   0  0  0  0  0  0  0  0  0  0  0  0
    0.8409   -0.3559   -2.3550 H   0  0  0  0  0  0  0  0  0  0  0  0
    0.3287   -1.5936   -3.5272 H   0  0  0  0  0  0  0  0  0  0  0  0
    2.1022    1.6179   -0.1880 H   0  0  0  0  0  0  0  0  0  0  0  0
    3.5704    2.5292   -0.3220 H   0  0  0  0  0  0  0  0  0  0  0  0
    5.6224    3.8656   -0.5296 H   0  0  0  0  0  0  0  0  0  0  0  0
    3.3422    7.4575   -0.0933 H   0  0  0  0  0  0  0  0  0  0  0  0
    1.2814    6.1335    0.1070 H   0  0  0  0  0  0  0  0  0  0  0  0
    7.1281    5.0955    0.2326 H   0  0  0  0  0  0  0  0  0  0  0  0
    6.9086    5.1711   -1.5321 H   0  0  0  0  0  0  0  0  0  0  0  0
    7.7948    6.4643   -0.6893 H   0  0  0  0  0  0  0  0  0  0  0  0
   -2.5904    6.0414   -0.4539 H   0  0  0  0  0  0  0  0  0  0  0  0
   -3.2843    5.9782    1.1841 H   0  0  0  0  0  0  0  0  0  0  0  0
   -1.5179    5.9736    0.9650 H   0  0  0  0  0  0  0  0  0  0  0  0
   -2.8630   -2.2983    0.3313 O   0  5  0  0  0  0  0  0  0  0  0  0
  1  2  1  0  0  0  0
  1 29  1  0  0  0  0
  1 30  1  0  0  0  0
  1 31  1  0  0  0  0
  2  7  2  0  0  0  0
  2  3  1  0  0  0  0
  3  4  2  0  0  0  0
  3 32  1  0  0  0  0
  4  5  1  0  0  0  0
  4 28  1  0  0  0  0
  5 19  1  0  0  0  0
  5  6  2  0  0  0  0
  6  7  1  0  0  0  0
  6  8  1  0  0  0  0
  7 33  1  0  0  0  0
  8  9  2  3  0  0  0
  8 17  1  0  0  0  0
  9 10  1  0  0  0  0
 10 11  1  0  0  0  0
 10 12  1  0  0  0  0
 10 15  1  0  0  0  0
 12 13  1  0  0  0  0
 12 14  1  0  0  0  0
 12 34  1  0  0  0  0
 13 35  1  0  0  0  0
 13 36  1  0  0  0  0
 13 37  1  0  0  0  0
 14 38  1  0  0  0  0
 14 39  1  0  0  0  0
 14 40  1  0  0  0  0
 15 16  2  0  0  0  0
 15 52  1  0  0  0  0
 17 18  2  0  0  0  0
 17 41  1  0  0  0  0
 18 19  1  0  0  0  0
 18 20  1  0  0  0  0
 20 25  2  0  0  0  0
 20 21  1  0  0  0  0
 21 22  2  0  0  0  0
 21 42  1  0  0  0  0
 22 23  1  0  0  0  0
 22 43  1  0  0  0  0
 23 24  2  0  0  0  0
 23 26  1  0  0  0  0
 24 25  1  0  0  0  0
 24 44  1  0  0  0  0
 25 45  1  0  0  0  0
 26 27  1  0  0  0  0
 27 46  1  0  0  0  0
 27 47  1  0  0  0  0
 27 48  1  0  0  0  0
 28 49  1  0  0  0  0
 28 50  1  0  0  0  0
 28 51  1  0  0  0  0
M  CHG  1  52  -1
M  END
$$$$
ZINC03857332
  -OEChem-08230709463D

 52 54  0     1  0  0  0  0  0999 V2000
   -2.6030    0.4212   -0.2937 C   0  0  0  0  0  0  0  0  0  0  0  0
   -1.3937    1.3153   -0.3900 C   0  0  0  0  0  0  0  0  0  0  0  0
   -1.5556    2.6755   -0.6015 C   0  0  0  0  0  0  0  0  0  0  0  0
   -0.4592    3.5072   -0.6988 C   0  0  0  0  0  0  0  0  0  0  0  0
    0.8211    2.9829   -0.5779 C   0  0  0  0  0  0  0  0  0  0  0  0
    0.9824    1.6083   -0.3574 C   0  0  0  0  0  0  0  0  0  0  0  0
   -0.1298    0.7781   -0.2612 C   0  0  0  0  0  0  0  0  0  0  0  0
    2.3574    1.0713   -0.2316 C   0  0  0  0  0  0  0  0  0  0  0  0
    2.5763   -0.2081   -0.0239 N   0  0  0  0  0  0  0  0  0  0  0  0
    1.5937   -1.0097    0.7098 C   0  0  2  0  0  0  0  0  0  0  0  0
    0.8256   -0.3551    1.1217 H   0  0  0  0  0  0  0  0  0  0  0  0
    2.2921   -1.7557    1.8485 C   0  0  0  0  0  0  0  0  0  0  0  0
    1.2660   -2.5928    2.6147 C   0  0  0  0  0  0  0  0  0  0  0  0
    3.3704   -2.6745    1.2704 C   0  0  0  0  0  0  0  0  0  0  0  0
    0.9571   -2.0043   -0.2264 C   0  0  0  0  0  0  0  0  0  0  0  0
    1.2900   -2.0399   -1.3873 O   0  0  0  0  0  0  0  0  0  0  0  0
    3.4324    1.9988   -0.3452 C   0  0  0  0  0  0  0  0  0  0  0  0
    3.1611    3.3092   -0.5594 C   0  0  0  0  0  0  0  0  0  0  0  0
    1.9070    3.7808   -0.6707 O   0  0  0  0  0  0  0  0  0  0  0  0
    4.2870    4.2563   -0.6746 C   0  0  0  0  0  0  0  0  0  0  0  0
    5.6021    3.7987   -0.5578 C   0  0  0  0  0  0  0  0  0  0  0  0
    6.6504    4.6852   -0.6722 C   0  0  0  0  0  0  0  0  0  0  0  0
    6.4011    6.0344   -0.8913 C   0  0  0  0  0  0  0  0  0  0  0  0
    5.0947    6.4946   -1.0019 C   0  0  0  0  0  0  0  0  0  0  0  0
    4.0408    5.6140   -0.8949 C   0  0  0  0  0  0  0  0  0  0  0  0
    7.4371    6.9058   -0.9973 O   0  0  0  0  0  0  0  0  0  0  0  0
    8.7543    6.3657   -0.8740 C   0  0  0  0  0  0  0  0  0  0  0  0
   -0.6505    4.9830   -0.9366 C   0  0  0  0  0  0  0  0  0  0  0  0
   -2.9307    0.3639    0.7443 H   0  0  0  0  0  0  0  0  0  0  0  0
   -3.4066    0.8298   -0.9064 H   0  0  0  0  0  0  0  0  0  0  0  0
   -2.3463   -0.5766   -0.6493 H   0  0  0  0  0  0  0  0  0  0  0  0
   -2.5494    3.0875   -0.6962 H   0  0  0  0  0  0  0  0  0  0  0  0
   -0.0042   -0.2810   -0.0912 H   0  0  0  0  0  0  0  0  0  0  0  0
    2.7526   -1.0363    2.5256 H   0  0  0  0  0  0  0  0  0  0  0  0
    0.8055   -3.3122    1.9376 H   0  0  0  0  0  0  0  0  0  0  0  0
    1.7635   -3.1244    3.4259 H   0  0  0  0  0  0  0  0  0  0  0  0
    0.4978   -1.9383    3.0265 H   0  0  0  0  0  0  0  0  0  0  0  0
    2.9099   -3.3939    0.5932 H   0  0  0  0  0  0  0  0  0  0  0  0
    4.1014   -2.0781    0.7245 H   0  0  0  0  0  0  0  0  0  0  0  0
    3.8680   -3.2060    2.0816 H   0  0  0  0  0  0  0  0  0  0  0  0
    4.4547    1.6608   -0.2610 H   0  0  0  0  0  0  0  0  0  0  0  0
    5.7966    2.7509   -0.3830 H   0  0  0  0  0  0  0  0  0  0  0  0
    7.6673    4.3317   -0.5865 H   0  0  0  0  0  0  0  0  0  0  0  0
    4.9053    7.5441   -1.1722 H   0  0  0  0  0  0  0  0  0  0  0  0
    3.0257    5.9725   -0.9810 H   0  0  0  0  0  0  0  0  0  0  0  0
    8.8647    5.8970    0.1039 H   0  0  0  0  0  0  0  0  0  0  0  0
    8.9164    5.6217   -1.6538 H   0  0  0  0  0  0  0  0  0  0  0  0
    9.4865    7.1664   -0.9778 H   0  0  0  0  0  0  0  0  0  0  0  0
   -0.6662    5.1792   -2.0087 H   0  0  0  0  0  0  0  0  0  0  0  0
   -1.5943    5.3028   -0.4949 H   0  0  0  0  0  0  0  0  0  0  0  0
    0.1704    5.5343   -0.4782 H   0  0  0  0  0  0  0  0  0  0  0  0
    0.0202   -2.8506    0.2295 O   0  5  0  0  0  0  0  0  0  0  0  0
  1  2  1  0  0  0  0
  1 29  1  0  0  0  0
  1 30  1  0  0  0  0
  1 31  1  0  0  0  0
  2  7  2  0  0  0  0
  2  3  1  0  0  0  0
  3  4  2  0  0  0  0
  3 32  1  0  0  0  0
  4  5  1  0  0  0  0
  4 28  1  0  0  0  0
  5 19  1  0  0  0  0
  5  6  2  0  0  0  0
  6  7  1  0  0  0  0
  6  8  1  0  0  0  0
  7 33  1  0  0  0  0
  8  9  2  3  0  0  0
  8 17  1  0  0  0  0
  9 10  1  0  0  0  0
 10 11  1  0  0  0  0
 10 12  1  0  0  0  0
 10 15  1  0  0  0  0
 12 13  1  0  0  0  0
 12 14  1  0  0  0  0
 12 34  1  0  0  0  0
 13 35  1  0  0  0  0
 13 36  1  0  0  0  0
 13 37  1  0  0  0  0
 14 38  1  0  0  0  0
 14 39  1  0  0  0  0
 14 40  1  0  0  0  0
 15 16  2  0  0  0  0
 15 52  1  0  0  0  0
 17 18  2  0  0  0  0
 17 41  1  0  0  0  0
 18 19  1  0  0  0  0
 18 20  1  0  0  0  0
 20 25  2  0  0  0  0
 20 21  1  0  0  0  0
 21 22  2  0  0  0  0
 21 42  1  0  0  0  0
 22 23  1  0  0  0  0
 22 43  1  0  0  0  0
 23 24  2  0  0  0  0
 23 26  1  0  0  0  0
 24 25  1  0  0  0  0
 24 44  1  0  0  0  0
 25 45  1  0  0  0  0
 26 27  1  0  0  0  0
 27 46  1  0  0  0  0
 27 47  1  0  0  0  0
 27 48  1  0  0  0  0
 28 49  1  0  0  0  0
 28 50  1  0  0  0  0
 28 51  1  0  0  0  0
M  CHG  1  52  -1
M  END
$$$$
ZINC03857333
  -OEChem-08230709463D

 49 51  0     0  0  0  0  0  0999 V2000
   -0.1091    0.5032    0.3477 C   0  0  0  0  0  0  0  0  0  0  0  0
   -0.8337    1.0824    1.5354 C   0  0  0  0  0  0  0  0  0  0  0  0
   -2.1566    1.4566    1.4182 C   0  0  0  0  0  0  0  0  0  0  0  0
   -2.8205    1.9861    2.5196 C   0  0  0  0  0  0  0  0  0  0  0  0
   -4.2420    2.3955    2.4384 C   0  0  0  0  0  0  0  0  0  0  0  0
   -4.9283    2.2685    1.3244 N   0  0  0  0  0  0  0  0  0  0  0  0
   -4.4885    1.3214    0.2970 C   0  0  0  0  0  0  0  0  0  0  0  0
   -5.7054    0.7967   -0.4676 C   0  0  0  0  0  0  0  0  0  0  0  0
   -5.2460   -0.1924   -1.5407 C   0  0  0  0  0  0  0  0  0  0  0  0
   -6.4447   -0.7092   -2.2937 C   0  0  0  0  0  0  0  0  0  0  0  0
   -7.5528   -0.3257   -2.0021 O   0  0  0  0  0  0  0  0  0  0  0  0
   -4.8341    2.9327    3.6171 C   0  0  0  0  0  0  0  0  0  0  0  0
   -4.0895    3.0461    4.7438 C   0  0  0  0  0  0  0  0  0  0  0  0
   -2.8002    2.6695    4.8014 O   0  0  0  0  0  0  0  0  0  0  0  0
   -2.1483    2.1491    3.7390 C   0  0  0  0  0  0  0  0  0  0  0  0
   -0.8158    1.7720    3.8370 C   0  0  0  0  0  0  0  0  0  0  0  0
   -0.1674    1.2428    2.7397 C   0  0  0  0  0  0  0  0  0  0  0  0
    1.2792    0.8357    2.8522 C   0  0  0  0  0  0  0  0  0  0  0  0
   -4.7192    3.6050    5.9558 C   0  0  0  0  0  0  0  0  0  0  0  0
   -6.0558    4.0112    5.9272 C   0  0  0  0  0  0  0  0  0  0  0  0
   -6.6412    4.5275    7.0623 C   0  0  0  0  0  0  0  0  0  0  0  0
   -5.9012    4.6551    8.2314 C   0  0  0  0  0  0  0  0  0  0  0  0
   -4.5702    4.2573    8.2628 C   0  0  0  0  0  0  0  0  0  0  0  0
   -3.9787    3.7347    7.1337 C   0  0  0  0  0  0  0  0  0  0  0  0
   -6.4804    5.1697    9.3465 O   0  0  0  0  0  0  0  0  0  0  0  0
   -7.8517    5.5587    9.2447 C   0  0  0  0  0  0  0  0  0  0  0  0
   -0.2223   -0.5809    0.3464 H   0  0  0  0  0  0  0  0  0  0  0  0
    0.9490    0.7580    0.4080 H   0  0  0  0  0  0  0  0  0  0  0  0
   -0.5299    0.9136   -0.5702 H   0  0  0  0  0  0  0  0  0  0  0  0
   -2.6743    1.3356    0.4781 H   0  0  0  0  0  0  0  0  0  0  0  0
   -3.8134    1.8242   -0.3956 H   0  0  0  0  0  0  0  0  0  0  0  0
   -3.9692    0.4877    0.7697 H   0  0  0  0  0  0  0  0  0  0  0  0
   -6.3805    0.2939    0.2249 H   0  0  0  0  0  0  0  0  0  0  0  0
   -6.2247    1.6304   -0.9403 H   0  0  0  0  0  0  0  0  0  0  0  0
   -4.5710    0.3104   -2.2332 H   0  0  0  0  0  0  0  0  0  0  0  0
   -4.7268   -1.0261   -1.0679 H   0  0  0  0  0  0  0  0  0  0  0  0
   -5.8675    3.2466    3.6132 H   0  0  0  0  0  0  0  0  0  0  0  0
   -0.2873    1.8924    4.7711 H   0  0  0  0  0  0  0  0  0  0  0  0
    1.9159    1.6820    2.5943 H   0  0  0  0  0  0  0  0  0  0  0  0
    1.4896    0.5209    3.8743 H   0  0  0  0  0  0  0  0  0  0  0  0
    1.4784    0.0098    2.1693 H   0  0  0  0  0  0  0  0  0  0  0  0
   -6.6304    3.9165    5.0177 H   0  0  0  0  0  0  0  0  0  0  0  0
   -7.6756    4.8373    7.0424 H   0  0  0  0  0  0  0  0  0  0  0  0
   -3.9988    4.3575    9.1737 H   0  0  0  0  0  0  0  0  0  0  0  0
   -2.9441    3.4260    7.1589 H   0  0  0  0  0  0  0  0  0  0  0  0
   -7.9554    6.3277    8.4793 H   0  0  0  0  0  0  0  0  0  0  0  0
   -8.4558    4.6927    8.9739 H   0  0  0  0  0  0  0  0  0  0  0  0
   -8.1899    5.9522   10.2033 H   0  0  0  0  0  0  0  0  0  0  0  0
   -6.2815   -1.5955   -3.2885 O   0  5  0  0  0  0  0  0  0  0  0  0
  1  2  1  0  0  0  0
  1 27  1  0  0  0  0
  1 28  1  0  0  0  0
  1 29  1  0  0  0  0
  2 17  2  0  0  0  0
  2  3  1  0  0  0  0
  3  4  2  0  0  0  0
  3 30  1  0  0  0  0
  4 15  1  0  0  0  0
  4  5  1  0  0  0  0
  5  6  2  3  0  0  0
  5 12  1  0  0  0  0
  6  7  1  0  0  0  0
  7  8  1  0  0  0  0
  7 31  1  0  0  0  0
  7 32  1  0  0  0  0
  8  9  1  0  0  0  0
  8 33  1  0  0  0  0
  8 34  1  0  0  0  0
  9 10  1  0  0  0  0
  9 35  1  0  0  0  0
  9 36  1  0  0  0  0
 10 11  2  0  0  0  0
 10 49  1  0  0  0  0
 12 13  2  0  0  0  0
 12 37  1  0  0  0  0
 13 14  1  0  0  0  0
 13 19  1  0  0  0  0
 14 15  1  0  0  0  0
 15 16  2  0  0  0  0
 16 17  1  0  0  0  0
 16 38  1  0  0  0  0
 17 18  1  0  0  0  0
 18 39  1  0  0  0  0
 18 40  1  0  0  0  0
 18 41  1  0  0  0  0
 19 24  2  0  0  0  0
 19 20  1  0  0  0  0
 20 21  2  0  0  0  0
 20 42  1  0  0  0  0
 21 22  1  0  0  0  0
 21 43  1  0  0  0  0
 22 23  2  0  0  0  0
 22 25  1  0  0  0  0
 23 24  1  0  0  0  0
 23 44  1  0  0  0  0
 24 45  1  0  0  0  0
 25 26  1  0  0  0  0
 26 46  1  0  0  0  0
 26 47  1  0  0  0  0
 26 48  1  0  0  0  0
M  CHG  1  49  -1
M  END
$$$$
ZINC03857339
  -OEChem-08230709463D

 56 58  0     1  0  0  0  0  0999 V2000
   -1.1284  -11.3513    1.1301 C   0  0  0  0  0  0  0  0  0  0  0  0
   -0.9559  -10.9156   -0.3264 C   0  0  0  0  0  0  0  0  0  0  0  0
   -1.0283   -9.4129   -0.4132 C   0  0  0  0  0  0  0  0  0  0  0  0
   -2.2505   -8.7908   -0.6141 C   0  0  0  0  0  0  0  0  0  0  0  0
   -2.3347   -7.4162   -0.6960 C   0  0  0  0  0  0  0  0  0  0  0  0
   -1.1869   -6.6435   -0.5775 C   0  0  0  0  0  0  0  0  0  0  0  0
    0.0480   -7.2744   -0.3744 C   0  0  0  0  0  0  0  0  0  0  0  0
    0.1220   -8.6612   -0.2928 C   0  0  0  0  0  0  0  0  0  0  0  0
    1.2590   -6.4300   -0.2509 C   0  0  0  0  0  0  0  0  0  0  0  0
    2.4465   -6.9602   -0.0591 N   0  0  0  0  0  0  0  0  0  0  0  0
    2.5742   -8.2301    0.6602 C   0  0  1  0  0  0  0  0  0  0  0  0
    1.6048   -8.5154    1.0687 H   0  0  0  0  0  0  0  0  0  0  0  0
    3.0612   -9.3148   -0.3027 C   0  0  0  0  0  0  0  0  0  0  0  0
    4.4748   -8.9759   -0.7799 C   0  0  0  0  0  0  0  0  0  0  0  0
    3.0755  -10.6655    0.4158 C   0  0  0  0  0  0  0  0  0  0  0  0
    3.5663   -8.0734    1.7837 C   0  0  0  0  0  0  0  0  0  0  0  0
    4.1108   -7.0102    1.9650 O   0  0  0  0  0  0  0  0  0  0  0  0
    1.0841   -5.0203   -0.3542 C   0  0  0  0  0  0  0  0  0  0  0  0
   -0.1592   -4.5162   -0.5467 C   0  0  0  0  0  0  0  0  0  0  0  0
   -1.2486   -5.2964   -0.6561 O   0  0  0  0  0  0  0  0  0  0  0  0
   -0.3228   -3.0529   -0.6461 C   0  0  0  0  0  0  0  0  0  0  0  0
    0.7897   -2.2149   -0.5365 C   0  0  0  0  0  0  0  0  0  0  0  0
    0.6350   -0.8483   -0.6300 C   0  0  0  0  0  0  0  0  0  0  0  0
   -0.6243   -0.3016   -0.8331 C   0  0  0  0  0  0  0  0  0  0  0  0
   -1.7391   -1.1313   -0.9380 C   0  0  0  0  0  0  0  0  0  0  0  0
   -1.5907   -2.5023   -0.8505 C   0  0  0  0  0  0  0  0  0  0  0  0
   -2.9724   -0.5918   -1.1318 O   0  0  0  0  0  0  0  0  0  0  0  0
   -4.0702   -1.5014   -1.2302 C   0  0  0  0  0  0  0  0  0  0  0  0
   -0.7715    1.0461   -0.9241 O   0  0  0  0  0  0  0  0  0  0  0  0
    0.4119    1.8377   -0.8018 C   0  0  0  0  0  0  0  0  0  0  0  0
   -1.0760  -12.4382    1.1928 H   0  0  0  0  0  0  0  0  0  0  0  0
   -0.3354  -10.9137    1.7365 H   0  0  0  0  0  0  0  0  0  0  0  0
   -2.0966  -11.0123    1.4985 H   0  0  0  0  0  0  0  0  0  0  0  0
   -1.7489  -11.3532   -0.9329 H   0  0  0  0  0  0  0  0  0  0  0  0
    0.0123  -11.2546   -0.6948 H   0  0  0  0  0  0  0  0  0  0  0  0
   -3.1456   -9.3879   -0.7075 H   0  0  0  0  0  0  0  0  0  0  0  0
   -3.2920   -6.9416   -0.8529 H   0  0  0  0  0  0  0  0  0  0  0  0
    1.0741   -9.1463   -0.1359 H   0  0  0  0  0  0  0  0  0  0  0  0
    2.3908   -9.3667   -1.1606 H   0  0  0  0  0  0  0  0  0  0  0  0
    5.1452   -8.9240    0.0779 H   0  0  0  0  0  0  0  0  0  0  0  0
    4.8217   -9.7487   -1.4659 H   0  0  0  0  0  0  0  0  0  0  0  0
    4.4646   -8.0137   -1.2918 H   0  0  0  0  0  0  0  0  0  0  0  0
    3.4224  -11.4383   -0.2701 H   0  0  0  0  0  0  0  0  0  0  0  0
    3.7460  -10.6136    1.2737 H   0  0  0  0  0  0  0  0  0  0  0  0
    2.0684  -10.9069    0.7558 H   0  0  0  0  0  0  0  0  0  0  0  0
    1.9341   -4.3586   -0.2760 H   0  0  0  0  0  0  0  0  0  0  0  0
    1.7707   -2.6377   -0.3781 H   0  0  0  0  0  0  0  0  0  0  0  0
    1.4958   -0.2016   -0.5455 H   0  0  0  0  0  0  0  0  0  0  0  0
   -2.4531   -3.1467   -0.9361 H   0  0  0  0  0  0  0  0  0  0  0  0
   -4.9930   -0.9419   -1.3835 H   0  0  0  0  0  0  0  0  0  0  0  0
   -3.9096   -2.1750   -2.0720 H   0  0  0  0  0  0  0  0  0  0  0  0
   -4.1453   -2.0811   -0.3102 H   0  0  0  0  0  0  0  0  0  0  0  0
    0.1543    2.8929   -0.8928 H   0  0  0  0  0  0  0  0  0  0  0  0
    0.8702    1.6582    0.1707 H   0  0  0  0  0  0  0  0  0  0  0  0
    1.1140    1.5658   -1.5900 H   0  0  0  0  0  0  0  0  0  0  0  0
    3.8451   -9.1151    2.5829 O   0  5  0  0  0  0  0  0  0  0  0  0
  1  2  1  0  0  0  0
  1 31  1  0  0  0  0
  1 32  1  0  0  0  0
  1 33  1  0  0  0  0
  2  3  1  0  0  0  0
  2 34  1  0  0  0  0
  2 35  1  0  0  0  0
  3  8  2  0  0  0  0
  3  4  1  0  0  0  0
  4  5  2  0  0  0  0
  4 36  1  0  0  0  0
  5  6  1  0  0  0  0
  5 37  1  0  0  0  0
  6 20  1  0  0  0  0
  6  7  2  0  0  0  0
  7  8  1  0  0  0  0
  7  9  1  0  0  0  0
  8 38  1  0  0  0  0
  9 10  2  3  0  0  0
  9 18  1  0  0  0  0
 10 11  1  0  0  0  0
 11 12  1  0  0  0  0
 11 13  1  0  0  0  0
 11 16  1  0  0  0  0
 13 14  1  0  0  0  0
 13 15  1  0  0  0  0
 13 39  1  0  0  0  0
 14 40  1  0  0  0  0
 14 41  1  0  0  0  0
 14 42  1  0  0  0  0
 15 43  1  0  0  0  0
 15 44  1  0  0  0  0
 15 45  1  0  0  0  0
 16 17  2  0  0  0  0
 16 56  1  0  0  0  0
 18 19  2  0  0  0  0
 18 46  1  0  0  0  0
 19 20  1  0  0  0  0
 19 21  1  0  0  0  0
 21 26  2  0  0  0  0
 21 22  1  0  0  0  0
 22 23  2  0  0  0  0
 22 47  1  0  0  0  0
 23 24  1  0  0  0  0
 23 48  1  0  0  0  0
 24 25  2  0  0  0  0
 24 29  1  0  0  0  0
 25 26  1  0  0  0  0
 25 27  1  0  0  0  0
 26 49  1  0  0  0  0
 27 28  1  0  0  0  0
 28 50  1  0  0  0  0
 28 51  1  0  0  0  0
 28 52  1  0  0  0  0
 29 30  1  0  0  0  0
 30 53  1  0  0  0  0
 30 54  1  0  0  0  0
 30 55  1  0  0  0  0
M  CHG  1  56  -1
M  END
$$$$
ZINC03857340
  -OEChem-08230709463D

 56 58  0     1  0  0  0  0  0999 V2000
   -0.7375    4.2738    3.8276 C   0  0  0  0  0  0  0  0  0  0  0  0
   -1.9711    3.6493    3.1726 C   0  0  0  0  0  0  0  0  0  0  0  0
   -1.8442    2.1478    3.1920 C   0  0  0  0  0  0  0  0  0  0  0  0
   -2.3365    1.4269    4.2686 C   0  0  0  0  0  0  0  0  0  0  0  0
   -2.2290    0.0519    4.3022 C   0  0  0  0  0  0  0  0  0  0  0  0
   -1.6228   -0.6216    3.2500 C   0  0  0  0  0  0  0  0  0  0  0  0
   -1.1201    0.1096    2.1651 C   0  0  0  0  0  0  0  0  0  0  0  0
   -1.2390    1.4954    2.1380 C   0  0  0  0  0  0  0  0  0  0  0  0
   -0.4837   -0.6306    1.0506 C   0  0  0  0  0  0  0  0  0  0  0  0
    0.0021   -0.0041    0.0020 N   0  0  0  0  0  0  0  0  0  0  0  0
   -0.5960    1.2585   -0.4390 C   0  0  2  0  0  0  0  0  0  0  0  0
   -1.5075    1.4465    0.1284 H   0  0  0  0  0  0  0  0  0  0  0  0
   -0.9319    1.1706   -1.9291 C   0  0  0  0  0  0  0  0  0  0  0  0
   -1.5565    2.4891   -2.3898 C   0  0  0  0  0  0  0  0  0  0  0  0
    0.3475    0.9066   -2.7256 C   0  0  0  0  0  0  0  0  0  0  0  0
    0.3797    2.3838   -0.2096 C   0  0  0  0  0  0  0  0  0  0  0  0
    1.4635    2.1547    0.2729 O   0  0  0  0  0  0  0  0  0  0  0  0
   -0.4147   -2.0486    1.1651 C   0  0  0  0  0  0  0  0  0  0  0  0
   -0.9284   -2.6533    2.2639 C   0  0  0  0  0  0  0  0  0  0  0  0
   -1.5083   -1.9674    3.2642 O   0  0  0  0  0  0  0  0  0  0  0  0
   -0.8483   -4.1234    2.3660 C   0  0  0  0  0  0  0  0  0  0  0  0
   -0.2573   -4.8654    1.3404 C   0  0  0  0  0  0  0  0  0  0  0  0
   -0.1787   -6.2380    1.4399 C   0  0  0  0  0  0  0  0  0  0  0  0
   -0.6955   -6.8870    2.5525 C   0  0  0  0  0  0  0  0  0  0  0  0
   -1.2915   -6.1536    3.5767 C   0  0  0  0  0  0  0  0  0  0  0  0
   -1.3686   -4.7769    3.4861 C   0  0  0  0  0  0  0  0  0  0  0  0
   -1.7970   -6.7928    4.6655 O   0  0  0  0  0  0  0  0  0  0  0  0
   -2.3933   -5.9784    5.6771 C   0  0  0  0  0  0  0  0  0  0  0  0
   -0.6206   -8.2407    2.6432 O   0  0  0  0  0  0  0  0  0  0  0  0
    0.0031   -8.9301    1.5579 C   0  0  0  0  0  0  0  0  0  0  0  0
   -0.6598    3.9290    4.8587 H   0  0  0  0  0  0  0  0  0  0  0  0
    0.1555    3.9775    3.2772 H   0  0  0  0  0  0  0  0  0  0  0  0
   -0.8292    5.3599    3.8136 H   0  0  0  0  0  0  0  0  0  0  0  0
   -2.0487    3.9940    2.1415 H   0  0  0  0  0  0  0  0  0  0  0  0
   -2.8640    3.9456    3.7230 H   0  0  0  0  0  0  0  0  0  0  0  0
   -2.8091    1.9467    5.0890 H   0  0  0  0  0  0  0  0  0  0  0  0
   -2.6163   -0.5001    5.1458 H   0  0  0  0  0  0  0  0  0  0  0  0
   -0.8555    2.0574    1.2992 H   0  0  0  0  0  0  0  0  0  0  0  0
   -1.6377    0.3566   -2.0951 H   0  0  0  0  0  0  0  0  0  0  0  0
   -0.8508    3.3030   -2.2238 H   0  0  0  0  0  0  0  0  0  0  0  0
   -1.7958    2.4265   -3.4513 H   0  0  0  0  0  0  0  0  0  0  0  0
   -2.4680    2.6771   -1.8223 H   0  0  0  0  0  0  0  0  0  0  0  0
    0.7925   -0.0327   -2.3975 H   0  0  0  0  0  0  0  0  0  0  0  0
    0.1082    0.8440   -3.7872 H   0  0  0  0  0  0  0  0  0  0  0  0
    1.0532    1.7205   -2.5596 H   0  0  0  0  0  0  0  0  0  0  0  0
    0.0425   -2.6367    0.3832 H   0  0  0  0  0  0  0  0  0  0  0  0
    0.1417   -4.3633    0.4714 H   0  0  0  0  0  0  0  0  0  0  0  0
    0.2824   -6.8101    0.6484 H   0  0  0  0  0  0  0  0  0  0  0  0
   -1.8296   -4.2072    4.2794 H   0  0  0  0  0  0  0  0  0  0  0  0
   -1.6517   -5.2802    6.0653 H   0  0  0  0  0  0  0  0  0  0  0  0
   -3.2279   -5.4220    5.2505 H   0  0  0  0  0  0  0  0  0  0  0  0
   -2.7550   -6.6118    6.4870 H   0  0  0  0  0  0  0  0  0  0  0  0
   -0.5437   -8.7280    0.6369 H   0  0  0  0  0  0  0  0  0  0  0  0
    1.0321   -8.5862    1.4524 H   0  0  0  0  0  0  0  0  0  0  0  0
   -0.0032  -10.0018    1.7566 H   0  0  0  0  0  0  0  0  0  0  0  0
    0.0448    3.6406   -0.5412 O   0  5  0  0  0  0  0  0  0  0  0  0
  1  2  1  0  0  0  0
  1 31  1  0  0  0  0
  1 32  1  0  0  0  0
  1 33  1  0  0  0  0
  2  3  1  0  0  0  0
  2 34  1  0  0  0  0
  2 35  1  0  0  0  0
  3  8  2  0  0  0  0
  3  4  1  0  0  0  0
  4  5  2  0  0  0  0
  4 36  1  0  0  0  0
  5  6  1  0  0  0  0
  5 37  1  0  0  0  0
  6 20  1  0  0  0  0
  6  7  2  0  0  0  0
  7  8  1  0  0  0  0
  7  9  1  0  0  0  0
  8 38  1  0  0  0  0
  9 10  2  3  0  0  0
  9 18  1  0  0  0  0
 10 11  1  0  0  0  0
 11 12  1  0  0  0  0
 11 13  1  0  0  0  0
 11 16  1  0  0  0  0
 13 14  1  0  0  0  0
 13 15  1  0  0  0  0
 13 39  1  0  0  0  0
 14 40  1  0  0  0  0
 14 41  1  0  0  0  0
 14 42  1  0  0  0  0
 15 43  1  0  0  0  0
 15 44  1  0  0  0  0
 15 45  1  0  0  0  0
 16 17  2  0  0  0  0
 16 56  1  0  0  0  0
 18 19  2  0  0  0  0
 18 46  1  0  0  0  0
 19 20  1  0  0  0  0
 19 21  1  0  0  0  0
 21 26  2  0  0  0  0
 21 22  1  0  0  0  0
 22 23  2  0  0  0  0
 22 47  1  0  0  0  0
 23 24  1  0  0  0  0
 23 48  1  0  0  0  0
 24 25  2  0  0  0  0
 24 29  1  0  0  0  0
 25 26  1  0  0  0  0
 25 27  1  0  0  0  0
 26 49  1  0  0  0  0
 27 28  1  0  0  0  0
 28 50  1  0  0  0  0
 28 51  1  0  0  0  0
 28 52  1  0  0  0  0
 29 30  1  0  0  0  0
 30 53  1  0  0  0  0
 30 54  1  0  0  0  0
 30 55  1  0  0  0  0
M  CHG  1  56  -1
M  END
$$$$
ZINC03857958
  -OEChem-08230709463D

 52 54  0     0  0  0  0  0  0999 V2000
   10.7220    2.9008    5.7405 C   0  0  0  0  0  0  0  0  0  0  0  0
   11.0891    2.7610    7.0676 C   0  0  0  0  0  0  0  0  0  0  0  0
   10.2261    2.1758    7.9735 C   0  0  0  0  0  0  0  0  0  0  0  0
    8.9755    1.7267    7.5536 C   0  0  0  0  0  0  0  0  0  0  0  0
    8.6054    1.8639    6.2034 C   0  0  0  0  0  0  0  0  0  0  0  0
    9.4880    2.4563    5.3054 C   0  0  0  0  0  0  0  0  0  0  0  0
    7.2813    1.3858    5.7413 C   0  0  0  0  0  0  0  0  0  0  0  0
    6.5568    0.7675    6.5025 O   0  0  0  0  0  0  0  0  0  0  0  0
    6.8819    1.6318    4.4924 N   0  0  0  0  0  0  0  0  0  0  0  0
    5.6911    1.2019    4.0769 C   0  0  0  0  0  0  0  0  0  0  0  0
    5.1063    1.3492    2.8537 N   0  0  0  0  0  0  0  0  0  0  0  0
    5.5649    1.8231    2.1423 H   0  0  0  0  0  0  0  0  0  0  0  0
    3.8719    0.8217    2.6471 C   0  0  0  0  0  0  0  0  0  0  0  0
    3.2719    0.1775    3.6538 C   0  0  0  0  0  0  0  0  0  0  0  0
    4.4880    0.3101    4.9530 S   0  0  0  0  0  0  0  0  0  0  0  0
    1.9203   -0.4888    3.6898 C   0  0  0  0  0  0  0  0  0  0  0  0
    1.9417   -1.7394    2.8094 C   0  0  0  0  0  0  0  0  0  0  0  0
    0.5437   -2.3607    2.7700 C   0  0  0  0  0  0  0  0  0  0  0  0
   -0.1355   -1.9954    1.4482 C   0  0  0  0  0  0  0  0  0  0  0  0
   -0.3962   -0.4886    1.4079 C   0  0  0  0  0  0  0  0  0  0  0  0
   -0.0273    0.0548    0.0254 C   0  0  0  0  0  0  0  0  0  0  0  0
   -0.0574    1.5846    0.0617 C   0  0  0  0  0  0  0  0  0  0  0  0
    1.3756    2.1204    0.0510 C   0  0  0  0  0  0  0  0  0  0  0  0
    2.0074    1.9168    1.4302 C   0  0  0  0  0  0  0  0  0  0  0  0
    3.1951    0.9601    1.3077 C   0  0  0  0  0  0  0  0  0  0  0  0
    8.0462    1.1050    8.5195 C   0  0  0  0  0  0  0  0  0  0  0  0
    6.9221    1.5461    8.6508 O   0  0  0  0  0  0  0  0  0  0  0  0
   11.4041    3.3605    5.0406 H   0  0  0  0  0  0  0  0  0  0  0  0
   12.0559    3.1119    7.3970 H   0  0  0  0  0  0  0  0  0  0  0  0
   10.5187    2.0702    9.0077 H   0  0  0  0  0  0  0  0  0  0  0  0
    9.2087    2.5685    4.2682 H   0  0  0  0  0  0  0  0  0  0  0  0
    1.1643    0.2033    3.3189 H   0  0  0  0  0  0  0  0  0  0  0  0
    1.6818   -0.7709    4.7153 H   0  0  0  0  0  0  0  0  0  0  0  0
    2.6483   -2.4607    3.2201 H   0  0  0  0  0  0  0  0  0  0  0  0
    2.2467   -1.4671    1.7990 H   0  0  0  0  0  0  0  0  0  0  0  0
   -0.0482   -1.9775    3.6012 H   0  0  0  0  0  0  0  0  0  0  0  0
    0.6245   -3.4447    2.8501 H   0  0  0  0  0  0  0  0  0  0  0  0
   -1.0817   -2.5302    1.3660 H   0  0  0  0  0  0  0  0  0  0  0  0
    0.5128   -2.2743    0.6175 H   0  0  0  0  0  0  0  0  0  0  0  0
    0.2106    0.0057    2.1665 H   0  0  0  0  0  0  0  0  0  0  0  0
   -1.4510   -0.2967    1.6043 H   0  0  0  0  0  0  0  0  0  0  0  0
   -0.7450   -0.3062   -0.7112 H   0  0  0  0  0  0  0  0  0  0  0  0
    0.9731   -0.2835   -0.2447 H   0  0  0  0  0  0  0  0  0  0  0  0
   -0.5920    1.9587   -0.8114 H   0  0  0  0  0  0  0  0  0  0  0  0
   -0.5632    1.9170    0.9683 H   0  0  0  0  0  0  0  0  0  0  0  0
    1.9580    1.5848   -0.6987 H   0  0  0  0  0  0  0  0  0  0  0  0
    1.3641    3.1834   -0.1896 H   0  0  0  0  0  0  0  0  0  0  0  0
    1.2683    1.4936    2.1104 H   0  0  0  0  0  0  0  0  0  0  0  0
    2.3515    2.8756    1.8181 H   0  0  0  0  0  0  0  0  0  0  0  0
    3.9054    1.3543    0.5810 H   0  0  0  0  0  0  0  0  0  0  0  0
    2.8419   -0.0166    0.9768 H   0  0  0  0  0  0  0  0  0  0  0  0
    8.4456    0.0491    9.2546 O   0  5  0  0  0  0  0  0  0  0  0  0
  1  6  2  0  0  0  0
  1  2  1  0  0  0  0
  1 28  1  0  0  0  0
  2  3  2  0  0  0  0
  2 29  1  0  0  0  0
  3  4  1  0  0  0  0
  3 30  1  0  0  0  0
  4  5  2  0  0  0  0
  4 26  1  0  0  0  0
  5  6  1  0  0  0  0
  5  7  1  0  0  0  0
  6 31  1  0  0  0  0
  7  8  2  0  0  0  0
  7  9  1  0  0  0  0
  9 10  2  0  0  0  0
 10 15  1  0  0  0  0
 10 11  1  0  0  0  0
 11 12  1  0  0  0  0
 11 13  1  0  0  0  0
 13 25  1  0  0  0  0
 13 14  2  0  0  0  0
 14 15  1  0  0  0  0
 14 16  1  0  0  0  0
 16 17  1  0  0  0  0
 16 32  1  0  0  0  0
 16 33  1  0  0  0  0
 17 18  1  0  0  0  0
 17 34  1  0  0  0  0
 17 35  1  0  0  0  0
 18 19  1  0  0  0  0
 18 36  1  0  0  0  0
 18 37  1  0  0  0  0
 19 20  1  0  0  0  0
 19 38  1  0  0  0  0
 19 39  1  0  0  0  0
 20 21  1  0  0  0  0
 20 40  1  0  0  0  0
 20 41  1  0  0  0  0
 21 22  1  0  0  0  0
 21 42  1  0  0  0  0
 21 43  1  0  0  0  0
 22 23  1  0  0  0  0
 22 44  1  0  0  0  0
 22 45  1  0  0  0  0
 23 24  1  0  0  0  0
 23 46  1  0  0  0  0
 23 47  1  0  0  0  0
 24 25  1  0  0  0  0
 24 48  1  0  0  0  0
 24 49  1  0  0  0  0
 25 50  1  0  0  0  0
 25 51  1  0  0  0  0
 26 27  2  0  0  0  0
 26 52  1  0  0  0  0
M  CHG  1  52  -1
M  END
$$$$
ZINC03858021
  -OEChem-08230709463D

 53 55  0     1  0  0  0  0  0999 V2000
    4.6193   -5.8956   -0.6532 C   0  0  0  0  0  0  0  0  0  0  0  0
    4.2814   -5.5036    0.7622 C   0  0  0  0  0  0  0  0  0  0  0  0
    3.2384   -4.7312    1.0019 C   0  0  0  0  0  0  0  0  0  0  0  0
    2.3853   -4.2412   -0.1397 C   0  0  1  0  0  0  0  0  0  0  0  0
    2.8344   -4.5899   -1.0696 H   0  0  0  0  0  0  0  0  0  0  0  0
    1.0162   -4.8798   -0.0082 C   0  0  0  0  0  0  0  0  0  0  0  0
   -0.0206   -4.0887    0.0955 N   0  0  0  0  0  0  0  0  0  0  0  0
    0.0858   -2.7561    0.0946 C   0  0  0  0  0  0  0  0  0  0  0  0
   -0.9386   -2.1087    0.2016 O   0  0  0  0  0  0  0  0  0  0  0  0
    1.2368   -2.0817   -0.0205 N   0  0  0  0  0  0  0  0  0  0  0  0
    2.4202   -2.7240   -0.1380 C   0  0  0  0  0  0  0  0  0  0  0  0
    3.4637   -2.1148   -0.2374 O   0  0  0  0  0  0  0  0  0  0  0  0
    1.2145   -0.6804   -0.0132 C   0  0  0  0  0  0  0  0  0  0  0  0
    1.0837    0.0194   -1.2052 C   0  0  0  0  0  0  0  0  0  0  0  0
    1.0616    1.4004   -1.1948 C   0  0  0  0  0  0  0  0  0  0  0  0
    1.1695    2.0860    0.0012 C   0  0  0  0  0  0  0  0  0  0  0  0
    1.3000    1.3918    1.1900 C   0  0  0  0  0  0  0  0  0  0  0  0
    1.3227    0.0108    1.1860 C   0  0  0  0  0  0  0  0  0  0  0  0
    0.8725   -6.2148    0.0009 O   0  0  0  0  0  0  0  0  0  0  0  0
    3.7563   -4.8461    3.4164 C   0  0  0  0  0  0  0  0  0  0  0  0
    3.2002   -4.3079    4.7362 C   0  0  0  0  0  0  0  0  0  0  0  0
    4.0533   -4.7979    5.8778 C   0  0  0  0  0  0  0  0  0  0  0  0
    5.0025   -4.0262    6.3008 C   0  0  0  0  0  0  0  0  0  0  0  0
    5.9351   -4.3780    7.4227 C   0  0  0  0  0  0  0  0  0  0  0  0
    5.3639   -5.5383    8.2405 C   0  0  0  0  0  0  0  0  0  0  0  0
    4.9419   -6.6519    7.2737 C   0  0  0  0  0  0  0  0  0  0  0  0
    3.7532   -6.1526    6.4495 C   0  0  0  0  0  0  0  0  0  0  0  0
    4.8146   -4.9991   -1.2417 H   0  0  0  0  0  0  0  0  0  0  0  0
    5.5055   -6.5302   -0.6528 H   0  0  0  0  0  0  0  0  0  0  0  0
    3.7821   -6.4409   -1.0889 H   0  0  0  0  0  0  0  0  0  0  0  0
    4.8928   -5.8547    1.5803 H   0  0  0  0  0  0  0  0  0  0  0  0
    0.9990   -0.5155   -2.1396 H   0  0  0  0  0  0  0  0  0  0  0  0
    0.9644    1.9454   -2.1221 H   0  0  0  0  0  0  0  0  0  0  0  0
    1.1520    3.1658    0.0069 H   0  0  0  0  0  0  0  0  0  0  0  0
    1.3845    1.9300    2.1225 H   0  0  0  0  0  0  0  0  0  0  0  0
    1.4242   -0.5309    2.1148 H   0  0  0  0  0  0  0  0  0  0  0  0
   -0.0270   -6.5589    0.0875 H   0  0  0  0  0  0  0  0  0  0  0  0
    3.7466   -5.9359    3.4355 H   0  0  0  0  0  0  0  0  0  0  0  0
    4.7792   -4.4942    3.2827 H   0  0  0  0  0  0  0  0  0  0  0  0
    3.2098   -3.2181    4.7171 H   0  0  0  0  0  0  0  0  0  0  0  0
    2.1773   -4.6599    4.8699 H   0  0  0  0  0  0  0  0  0  0  0  0
    5.1290   -3.0681    5.8188 H   0  0  0  0  0  0  0  0  0  0  0  0
    6.0687   -3.5111    8.0698 H   0  0  0  0  0  0  0  0  0  0  0  0
    6.9003   -4.6689    7.0081 H   0  0  0  0  0  0  0  0  0  0  0  0
    4.4971   -5.1962    8.8061 H   0  0  0  0  0  0  0  0  0  0  0  0
    6.1226   -5.9162    8.9258 H   0  0  0  0  0  0  0  0  0  0  0  0
    4.6499   -7.5369    7.8390 H   0  0  0  0  0  0  0  0  0  0  0  0
    5.7705   -6.8983    6.6096 H   0  0  0  0  0  0  0  0  0  0  0  0
    2.8723   -6.0882    7.0882 H   0  0  0  0  0  0  0  0  0  0  0  0
    3.5599   -6.8529    5.6369 H   0  0  0  0  0  0  0  0  0  0  0  0
    2.8687   -4.3267    2.3190 N   0  3  0  0  0  0  0  0  0  0  0  0
    1.9134   -4.6587    2.4963 H   0  0  0  0  0  0  0  0  0  0  0  0
    2.8862   -3.3007    2.3523 H   0  0  0  0  0  0  0  0  0  0  0  0
  1  2  1  0  0  0  0
  1 28  1  0  0  0  0
  1 29  1  0  0  0  0
  1 30  1  0  0  0  0
  2  3  2  0  0  0  0
  2 31  1  0  0  0  0
  3  4  1  0  0  0  0
  3 51  1  0  0  0  0
  4  5  1  0  0  0  0
  4 11  1  0  0  0  0
  4  6  1  0  0  0  0
  6  7  2  0  0  0  0
  6 19  1  0  0  0  0
  7  8  1  0  0  0  0
  8  9  2  0  0  0  0
  8 10  1  0  0  0  0
 10 11  1  0  0  0  0
 10 13  1  0  0  0  0
 11 12  2  0  0  0  0
 13 18  2  0  0  0  0
 13 14  1  0  0  0  0
 14 15  2  0  0  0  0
 14 32  1  0  0  0  0
 15 16  1  0  0  0  0
 15 33  1  0  0  0  0
 16 17  2  0  0  0  0
 16 34  1  0  0  0  0
 17 18  1  0  0  0  0
 17 35  1  0  0  0  0
 18 36  1  0  0  0  0
 19 37  1  0  0  0  0
 20 21  1  0  0  0  0
 20 38  1  0  0  0  0
 20 39  1  0  0  0  0
 20 51  1  0  0  0  0
 21 22  1  0  0  0  0
 21 40  1  0  0  0  0
 21 41  1  0  0  0  0
 22 27  1  0  0  0  0
 22 23  2  0  0  0  0
 23 24  1  0  0  0  0
 23 42  1  0  0  0  0
 24 25  1  0  0  0  0
 24 43  1  0  0  0  0
 24 44  1  0  0  0  0
 25 26  1  0  0  0  0
 25 45  1  0  0  0  0
 25 46  1  0  0  0  0
 26 27  1  0  0  0  0
 26 47  1  0  0  0  0
 26 48  1  0  0  0  0
 27 49  1  0  0  0  0
 27 50  1  0  0  0  0
 51 52  1  0  0  0  0
 51 53  1  0  0  0  0
M  CHG  1  51   1
M  END
$$$$
ZINC03862652
  -OEChem-08230709463D

 55 56  0     1  0  0  0  0  0999 V2000
   -1.2800   13.9870    1.2657 C   0  0  0  0  0  0  0  0  0  0  0  0
   -1.2592   12.4572    1.2578 C   0  0  0  0  0  0  0  0  0  0  0  0
   -0.4356   11.9645    0.0663 C   0  0  0  0  0  0  0  0  0  0  0  0
   -0.4148   10.4346    0.0584 C   0  0  0  0  0  0  0  0  0  0  0  0
    0.3020    9.9408   -1.1998 C   0  0  0  0  0  0  0  0  0  0  0  0
    0.3228    8.4110   -1.2077 C   0  0  0  0  0  0  0  0  0  0  0  0
    1.0621    7.9045    0.0324 C   0  0  0  0  0  0  0  0  0  0  0  0
    0.3452    8.3984    1.2906 C   0  0  0  0  0  0  0  0  0  0  0  0
    0.3244    9.9282    1.2985 C   0  0  0  0  0  0  0  0  0  0  0  0
    1.0825    6.3977    0.0247 C   0  0  0  0  0  0  0  0  0  0  0  0
    2.2917    5.7254    0.0104 C   0  0  0  0  0  0  0  0  0  0  0  0
    2.3174    4.3460    0.0033 C   0  0  0  0  0  0  0  0  0  0  0  0
    1.1201    3.6288    0.0109 C   0  0  0  0  0  0  0  0  0  0  0  0
   -0.0963    4.3132    0.0203 C   0  0  0  0  0  0  0  0  0  0  0  0
   -0.1080    5.6927    0.0322 C   0  0  0  0  0  0  0  0  0  0  0  0
    1.1401    2.1505    0.0027 C   0  0  0  0  0  0  0  0  0  0  0  0
    2.2009    1.5571   -0.0106 O   0  0  0  0  0  0  0  0  0  0  0  0
   -0.0178    1.4608    0.0101 N   0  0  0  0  0  0  0  0  0  0  0  0
    0.0021   -0.0041    0.0020 C   0  0  1  0  0  0  0  0  0  0  0  0
    0.8543   -0.3591    0.5815 H   0  0  0  0  0  0  0  0  0  0  0  0
   -1.2924   -0.5351    0.6212 C   0  0  0  0  0  0  0  0  0  0  0  0
   -2.4787   -0.1415   -0.2612 C   0  0  0  0  0  0  0  0  0  0  0  0
   -1.2191   -2.0597    0.7270 C   0  0  0  0  0  0  0  0  0  0  0  0
    0.1192   -0.4971   -1.4172 C   0  0  0  0  0  0  0  0  0  0  0  0
    0.1798    0.2940   -2.3285 O   0  0  0  0  0  0  0  0  0  0  0  0
   -0.2605   14.3638    1.3481 H   0  0  0  0  0  0  0  0  0  0  0  0
   -1.7275   14.3491    0.3401 H   0  0  0  0  0  0  0  0  0  0  0  0
   -1.8667   14.3381    2.1146 H   0  0  0  0  0  0  0  0  0  0  0  0
   -2.2787   12.0804    1.1755 H   0  0  0  0  0  0  0  0  0  0  0  0
   -0.8117   12.0951    2.1834 H   0  0  0  0  0  0  0  0  0  0  0  0
    0.5839   12.3412    0.1486 H   0  0  0  0  0  0  0  0  0  0  0  0
   -0.8831   12.3265   -0.8593 H   0  0  0  0  0  0  0  0  0  0  0  0
   -1.4374   10.0574    0.0657 H   0  0  0  0  0  0  0  0  0  0  0  0
    1.3246   10.3181   -1.2071 H   0  0  0  0  0  0  0  0  0  0  0  0
   -0.2246   10.3016   -2.0833 H   0  0  0  0  0  0  0  0  0  0  0  0
    0.8335    8.0591   -2.1041 H   0  0  0  0  0  0  0  0  0  0  0  0
   -0.6998    8.0337   -1.2004 H   0  0  0  0  0  0  0  0  0  0  0  0
    2.0846    8.2818    0.0252 H   0  0  0  0  0  0  0  0  0  0  0  0
   -0.6774    8.0211    1.2979 H   0  0  0  0  0  0  0  0  0  0  0  0
    0.8718    8.0376    2.1741 H   0  0  0  0  0  0  0  0  0  0  0  0
    1.3470   10.3055    1.2913 H   0  0  0  0  0  0  0  0  0  0  0  0
   -0.1863   10.2800    2.1949 H   0  0  0  0  0  0  0  0  0  0  0  0
    3.2174    6.2816    0.0046 H   0  0  0  0  0  0  0  0  0  0  0  0
    3.2619    3.8224   -0.0078 H   0  0  0  0  0  0  0  0  0  0  0  0
   -1.0263    3.7641    0.0217 H   0  0  0  0  0  0  0  0  0  0  0  0
   -1.0485    6.2235    0.0433 H   0  0  0  0  0  0  0  0  0  0  0  0
   -0.8643    1.9343    0.0167 H   0  0  0  0  0  0  0  0  0  0  0  0
   -1.4215   -0.1076    1.6155 H   0  0  0  0  0  0  0  0  0  0  0  0
   -2.5309    0.9446   -0.3366 H   0  0  0  0  0  0  0  0  0  0  0  0
   -2.3495   -0.5690   -1.2555 H   0  0  0  0  0  0  0  0  0  0  0  0
   -3.4009   -0.5198    0.1799 H   0  0  0  0  0  0  0  0  0  0  0  0
   -0.3739   -2.3400    1.3556 H   0  0  0  0  0  0  0  0  0  0  0  0
   -2.1413   -2.4380    1.1681 H   0  0  0  0  0  0  0  0  0  0  0  0
   -1.0899   -2.4871   -0.2673 H   0  0  0  0  0  0  0  0  0  0  0  0
    0.1561   -1.8150   -1.6690 O   0  5  0  0  0  0  0  0  0  0  0  0
  1  2  1  0  0  0  0
  1 26  1  0  0  0  0
  1 27  1  0  0  0  0
  1 28  1  0  0  0  0
  2  3  1  0  0  0  0
  2 29  1  0  0  0  0
  2 30  1  0  0  0  0
  3  4  1  0  0  0  0
  3 31  1  0  0  0  0
  3 32  1  0  0  0  0
  4  9  1  0  0  0  0
  4  5  1  0  0  0  0
  4 33  1  0  0  0  0
  5  6  1  0  0  0  0
  5 34  1  0  0  0  0
  5 35  1  0  0  0  0
  6  7  1  0  0  0  0
  6 36  1  0  0  0  0
  6 37  1  0  0  0  0
  7  8  1  0  0  0  0
  7 10  1  0  0  0  0
  7 38  1  0  0  0  0
  8  9  1  0  0  0  0
  8 39  1  0  0  0  0
  8 40  1  0  0  0  0
  9 41  1  0  0  0  0
  9 42  1  0  0  0  0
 10 15  2  0  0  0  0
 10 11  1  0  0  0  0
 11 12  2  0  0  0  0
 11 43  1  0  0  0  0
 12 13  1  0  0  0  0
 12 44  1  0  0  0  0
 13 14  2  0  0  0  0
 13 16  1  0  0  0  0
 14 15  1  0  0  0  0
 14 45  1  0  0  0  0
 15 46  1  0  0  0  0
 16 17  2  0  0  0  0
 16 18  1  0  0  0  0
 18 19  1  0  0  0  0
 18 47  1  0  0  0  0
 19 20  1  0  0  0  0
 19 21  1  0  0  0  0
 19 24  1  0  0  0  0
 21 22  1  0  0  0  0
 21 23  1  0  0  0  0
 21 48  1  0  0  0  0
 22 49  1  0  0  0  0
 22 50  1  0  0  0  0
 22 51  1  0  0  0  0
 23 52  1  0  0  0  0
 23 53  1  0  0  0  0
 23 54  1  0  0  0  0
 24 25  2  0  0  0  0
 24 55  1  0  0  0  0
M  CHG  1  55  -1
M  END
$$$$
ZINC03862653
  -OEChem-08230709463D

 55 56  0     1  0  0  0  0  0999 V2000
    8.9457    0.0042    1.0984 C   0  0  0  0  0  0  0  0  0  0  0  0
    7.6133    0.7562    1.1151 C   0  0  0  0  0  0  0  0  0  0  0  0
    6.7513    0.2926   -0.0608 C   0  0  0  0  0  0  0  0  0  0  0  0
    5.4189    1.0446   -0.0441 C   0  0  0  0  0  0  0  0  0  0  0  0
    4.6084    0.6739   -1.2876 C   0  0  0  0  0  0  0  0  0  0  0  0
    3.2760    1.4258   -1.2709 C   0  0  0  0  0  0  0  0  0  0  0  0
    2.4893    1.0417   -0.0161 C   0  0  0  0  0  0  0  0  0  0  0  0
    3.2999    1.4124    1.2275 C   0  0  0  0  0  0  0  0  0  0  0  0
    4.6322    0.6604    1.2107 C   0  0  0  0  0  0  0  0  0  0  0  0
    1.1770    1.7823    0.0004 C   0  0  0  0  0  0  0  0  0  0  0  0
   -0.0126    1.0758    0.0080 C   0  0  0  0  0  0  0  0  0  0  0  0
   -1.2174    1.7478    0.0173 C   0  0  0  0  0  0  0  0  0  0  0  0
   -1.2345    3.1434    0.0303 C   0  0  0  0  0  0  0  0  0  0  0  0
   -0.0308    3.8500    0.0230 C   0  0  0  0  0  0  0  0  0  0  0  0
    1.1671    3.1659    0.0084 C   0  0  0  0  0  0  0  0  0  0  0  0
   -2.5219    3.8700    0.0460 C   0  0  0  0  0  0  0  0  0  0  0  0
   -2.5338    5.0855    0.0527 O   0  0  0  0  0  0  0  0  0  0  0  0
   -3.6825    3.1848    0.0530 N   0  0  0  0  0  0  0  0  0  0  0  0
   -4.9582    3.9048    0.0686 C   0  0  2  0  0  0  0  0  0  0  0  0
   -4.8554    4.8133    0.6620 H   0  0  0  0  0  0  0  0  0  0  0  0
   -6.0393    3.0136    0.6834 C   0  0  0  0  0  0  0  0  0  0  0  0
   -7.3717    3.7656    0.6996 C   0  0  0  0  0  0  0  0  0  0  0  0
   -6.1836    1.7384   -0.1496 C   0  0  0  0  0  0  0  0  0  0  0  0
   -5.3478    4.2672   -1.3414 C   0  0  0  0  0  0  0  0  0  0  0  0
   -4.6331    3.9559   -2.2645 O   0  0  0  0  0  0  0  0  0  0  0  0
    9.4667    0.2088    0.1631 H   0  0  0  0  0  0  0  0  0  0  0  0
    9.5598    0.3344    1.9361 H   0  0  0  0  0  0  0  0  0  0  0  0
    8.7597   -1.0664    1.1840 H   0  0  0  0  0  0  0  0  0  0  0  0
    7.7993    1.8268    1.0295 H   0  0  0  0  0  0  0  0  0  0  0  0
    7.0924    0.5515    2.0504 H   0  0  0  0  0  0  0  0  0  0  0  0
    6.5653   -0.7780    0.0248 H   0  0  0  0  0  0  0  0  0  0  0  0
    7.2722    0.4973   -0.9961 H   0  0  0  0  0  0  0  0  0  0  0  0
    5.6076    2.1181   -0.0401 H   0  0  0  0  0  0  0  0  0  0  0  0
    4.4197   -0.3997   -1.2916 H   0  0  0  0  0  0  0  0  0  0  0  0
    5.1688    0.9475   -2.1816 H   0  0  0  0  0  0  0  0  0  0  0  0
    2.6986    1.1617   -2.1568 H   0  0  0  0  0  0  0  0  0  0  0  0
    3.4647    2.4994   -1.2669 H   0  0  0  0  0  0  0  0  0  0  0  0
    2.3006   -0.0319   -0.0201 H   0  0  0  0  0  0  0  0  0  0  0  0
    3.4886    2.4859    1.2314 H   0  0  0  0  0  0  0  0  0  0  0  0
    2.7394    1.1387    2.1214 H   0  0  0  0  0  0  0  0  0  0  0  0
    4.4435   -0.4131    1.2067 H   0  0  0  0  0  0  0  0  0  0  0  0
    5.2097    0.9246    2.0966 H   0  0  0  0  0  0  0  0  0  0  0  0
    0.0021   -0.0041    0.0020 H   0  0  0  0  0  0  0  0  0  0  0  0
   -2.1453    1.1951    0.0187 H   0  0  0  0  0  0  0  0  0  0  0  0
   -0.0372    4.9300    0.0285 H   0  0  0  0  0  0  0  0  0  0  0  0
    2.0991    3.7114    0.0028 H   0  0  0  0  0  0  0  0  0  0  0  0
   -3.6730    2.2148    0.0476 H   0  0  0  0  0  0  0  0  0  0  0  0
   -5.7575    2.7515    1.7032 H   0  0  0  0  0  0  0  0  0  0  0  0
   -7.6534    4.0277   -0.3202 H   0  0  0  0  0  0  0  0  0  0  0  0
   -8.1419    3.1307    1.1376 H   0  0  0  0  0  0  0  0  0  0  0  0
   -7.2689    4.6741    1.2931 H   0  0  0  0  0  0  0  0  0  0  0  0
   -6.4654    2.0005   -1.1694 H   0  0  0  0  0  0  0  0  0  0  0  0
   -5.2344    1.2027   -0.1612 H   0  0  0  0  0  0  0  0  0  0  0  0
   -6.9538    1.1035    0.2883 H   0  0  0  0  0  0  0  0  0  0  0  0
   -6.4887    4.9357   -1.5716 O   0  5  0  0  0  0  0  0  0  0  0  0
  1  2  1  0  0  0  0
  1 26  1  0  0  0  0
  1 27  1  0  0  0  0
  1 28  1  0  0  0  0
  2  3  1  0  0  0  0
  2 29  1  0  0  0  0
  2 30  1  0  0  0  0
  3  4  1  0  0  0  0
  3 31  1  0  0  0  0
  3 32  1  0  0  0  0
  4  9  1  0  0  0  0
  4  5  1  0  0  0  0
  4 33  1  0  0  0  0
  5  6  1  0  0  0  0
  5 34  1  0  0  0  0
  5 35  1  0  0  0  0
  6  7  1  0  0  0  0
  6 36  1  0  0  0  0
  6 37  1  0  0  0  0
  7  8  1  0  0  0  0
  7 10  1  0  0  0  0
  7 38  1  0  0  0  0
  8  9  1  0  0  0  0
  8 39  1  0  0  0  0
  8 40  1  0  0  0  0
  9 41  1  0  0  0  0
  9 42  1  0  0  0  0
 10 15  2  0  0  0  0
 10 11  1  0  0  0  0
 11 12  2  0  0  0  0
 11 43  1  0  0  0  0
 12 13  1  0  0  0  0
 12 44  1  0  0  0  0
 13 14  2  0  0  0  0
 13 16  1  0  0  0  0
 14 15  1  0  0  0  0
 14 45  1  0  0  0  0
 15 46  1  0  0  0  0
 16 17  2  0  0  0  0
 16 18  1  0  0  0  0
 18 19  1  0  0  0  0
 18 47  1  0  0  0  0
 19 20  1  0  0  0  0
 19 21  1  0  0  0  0
 19 24  1  0  0  0  0
 21 22  1  0  0  0  0
 21 23  1  0  0  0  0
 21 48  1  0  0  0  0
 22 49  1  0  0  0  0
 22 50  1  0  0  0  0
 22 51  1  0  0  0  0
 23 52  1  0  0  0  0
 23 53  1  0  0  0  0
 23 54  1  0  0  0  0
 24 25  2  0  0  0  0
 24 55  1  0  0  0  0
M  CHG  1  55  -1
M  END
$$$$
ZINC03864107
  -OEChem-08230709463D

 54 56  0     1  0  0  0  0  0999 V2000
   -4.1071   -3.4908   -9.2784 C   0  0  0  0  0  0  0  0  0  0  0  0
   -3.6487   -4.1258   -7.9908 C   0  0  0  0  0  0  0  0  0  0  0  0
   -4.0090   -5.3463   -7.7540 C   0  0  0  0  0  0  0  0  0  0  0  0
   -3.6226   -6.1134   -6.5235 C   0  0  0  0  0  0  0  0  0  0  0  0
   -3.1336   -5.1540   -5.4362 C   0  0  2  0  0  0  0  0  0  0  0  0
   -3.9739   -4.5742   -5.0542 H   0  0  0  0  0  0  0  0  0  0  0  0
   -2.0942   -4.2100   -6.0539 C   0  0  1  0  0  0  0  0  0  0  0  0
   -1.3235   -4.7931   -6.5580 H   0  0  0  0  0  0  0  0  0  0  0  0
   -2.8026   -3.3039   -7.0632 C   0  0  0  0  0  0  0  0  0  0  0  0
   -1.4668   -3.3696   -4.9717 C   0  0  0  0  0  0  0  0  0  0  0  0
   -1.8140   -3.5087   -3.8180 O   0  0  0  0  0  0  0  0  0  0  0  0
   -0.5199   -2.4635   -5.2859 N   0  0  0  0  0  0  0  0  0  0  0  0
    0.0571   -1.6905   -4.2905 C   0  0  0  0  0  0  0  0  0  0  0  0
    1.0360   -0.7157   -4.4142 C   0  0  0  0  0  0  0  0  0  0  0  0
    1.4739   -0.0381   -3.2007 C   0  0  0  0  0  0  0  0  0  0  0  0
    0.8716   -0.4545   -2.0672 C   0  0  0  0  0  0  0  0  0  0  0  0
   -0.2686   -1.7067   -2.5897 S   0  0  0  0  0  0  0  0  0  0  0  0
    1.1108    0.0300   -0.6712 C   0  0  0  0  0  0  0  0  0  0  0  0
    1.0745    1.5640   -0.6558 C   0  0  0  0  0  0  0  0  0  0  0  0
    2.4837    2.0840   -0.9220 C   0  0  0  0  0  0  0  0  0  0  0  0
    3.2240    1.1366   -1.8640 C   0  0  0  0  0  0  0  0  0  0  0  0
    2.5205    1.0693   -3.2150 C   0  0  0  0  0  0  0  0  0  0  0  0
    1.6095   -0.3791   -5.7188 C   0  0  0  0  0  0  0  0  0  0  0  0
    1.1023    0.4920   -6.3997 O   0  0  0  0  0  0  0  0  0  0  0  0
    2.7001   -1.0351   -6.1656 O   0  0  0  0  0  0  0  0  0  0  0  0
    3.2142   -0.6491   -7.4675 C   0  0  0  0  0  0  0  0  0  0  0  0
   -2.5039   -5.9347   -4.3115 C   0  0  0  0  0  0  0  0  0  0  0  0
   -1.3425   -5.7574   -4.0292 O   0  0  0  0  0  0  0  0  0  0  0  0
   -4.8697   -6.0403   -8.7781 C   0  0  0  0  0  0  0  0  0  0  0  0
   -5.1927   -3.5573   -9.3500 H   0  0  0  0  0  0  0  0  0  0  0  0
   -3.8053   -2.4436   -9.2946 H   0  0  0  0  0  0  0  0  0  0  0  0
   -3.6547   -4.0124  -10.1219 H   0  0  0  0  0  0  0  0  0  0  0  0
   -2.8263   -6.8155   -6.7706 H   0  0  0  0  0  0  0  0  0  0  0  0
   -4.4888   -6.6640   -6.1565 H   0  0  0  0  0  0  0  0  0  0  0  0
   -3.4354   -2.5945   -6.5299 H   0  0  0  0  0  0  0  0  0  0  0  0
   -2.0584   -2.7568   -7.6421 H   0  0  0  0  0  0  0  0  0  0  0  0
   -0.2422   -2.3522   -6.2086 H   0  0  0  0  0  0  0  0  0  0  0  0
    2.0864   -0.3146   -0.3283 H   0  0  0  0  0  0  0  0  0  0  0  0
    0.3349   -0.3593   -0.0120 H   0  0  0  0  0  0  0  0  0  0  0  0
    0.3991    1.9222   -1.4327 H   0  0  0  0  0  0  0  0  0  0  0  0
    0.7335    1.9125    0.3192 H   0  0  0  0  0  0  0  0  0  0  0  0
    2.4242    3.0726   -1.3771 H   0  0  0  0  0  0  0  0  0  0  0  0
    3.0270    2.1542    0.0204 H   0  0  0  0  0  0  0  0  0  0  0  0
    3.2521    0.1401   -1.4230 H   0  0  0  0  0  0  0  0  0  0  0  0
    4.2432    1.4957   -2.0066 H   0  0  0  0  0  0  0  0  0  0  0  0
    3.2536    0.8644   -3.9951 H   0  0  0  0  0  0  0  0  0  0  0  0
    2.0346    2.0239   -3.4165 H   0  0  0  0  0  0  0  0  0  0  0  0
    4.0900   -1.2526   -7.7058 H   0  0  0  0  0  0  0  0  0  0  0  0
    2.4457   -0.8094   -8.2237 H   0  0  0  0  0  0  0  0  0  0  0  0
    3.4928    0.4046   -7.4503 H   0  0  0  0  0  0  0  0  0  0  0  0
   -5.9161   -5.7903   -8.6027 H   0  0  0  0  0  0  0  0  0  0  0  0
   -4.5807   -5.7137   -9.7770 H   0  0  0  0  0  0  0  0  0  0  0  0
   -4.7350   -7.1187   -8.6952 H   0  0  0  0  0  0  0  0  0  0  0  0
   -3.2332   -6.8270   -3.6233 O   0  5  0  0  0  0  0  0  0  0  0  0
  1  2  1  0  0  0  0
  1 30  1  0  0  0  0
  1 31  1  0  0  0  0
  1 32  1  0  0  0  0
  2  9  1  0  0  0  0
  2  3  2  0  0  0  0
  3  4  1  0  0  0  0
  3 29  1  0  0  0  0
  4  5  1  0  0  0  0
  4 33  1  0  0  0  0
  4 34  1  0  0  0  0
  5  6  1  0  0  0  0
  5  7  1  0  0  0  0
  5 27  1  0  0  0  0
  7  8  1  0  0  0  0
  7  9  1  0  0  0  0
  7 10  1  0  0  0  0
  9 35  1  0  0  0  0
  9 36  1  0  0  0  0
 10 11  2  0  0  0  0
 10 12  1  0  0  0  0
 12 13  1  0  0  0  0
 12 37  1  0  0  0  0
 13 17  1  0  0  0  0
 13 14  2  0  0  0  0
 14 15  1  0  0  0  0
 14 23  1  0  0  0  0
 15 22  1  0  0  0  0
 15 16  2  0  0  0  0
 16 17  1  0  0  0  0
 16 18  1  0  0  0  0
 18 19  1  0  0  0  0
 18 38  1  0  0  0  0
 18 39  1  0  0  0  0
 19 20  1  0  0  0  0
 19 40  1  0  0  0  0
 19 41  1  0  0  0  0
 20 21  1  0  0  0  0
 20 42  1  0  0  0  0
 20 43  1  0  0  0  0
 21 22  1  0  0  0  0
 21 44  1  0  0  0  0
 21 45  1  0  0  0  0
 22 46  1  0  0  0  0
 22 47  1  0  0  0  0
 23 24  2  0  0  0  0
 23 25  1  0  0  0  0
 25 26  1  0  0  0  0
 26 48  1  0  0  0  0
 26 49  1  0  0  0  0
 26 50  1  0  0  0  0
 27 28  2  0  0  0  0
 27 54  1  0  0  0  0
 29 51  1  0  0  0  0
 29 52  1  0  0  0  0
 29 53  1  0  0  0  0
M  CHG  1  54  -1
M  END
$$$$
ZINC03864110
  -OEChem-08230709463D

 50 51  0     1  0  0  0  0  0999 V2000
   -4.9660    6.8738    8.8934 C   0  0  0  0  0  0  0  0  0  0  0  0
   -4.6220    6.6890    7.4140 C   0  0  0  0  0  0  0  0  0  0  0  0
   -3.1397    6.9968    7.1928 C   0  0  0  0  0  0  0  0  0  0  0  0
   -2.8009    6.8149    5.7358 C   0  0  0  0  0  0  0  0  0  0  0  0
   -2.8505    7.7258    4.7477 C   0  0  0  0  0  0  0  0  0  0  0  0
   -2.4691    7.2867    3.4261 C   0  0  0  0  0  0  0  0  0  0  0  0
   -2.0840    5.9564    3.2966 C   0  0  0  0  0  0  0  0  0  0  0  0
   -2.2457    5.3399    4.9066 S   0  0  0  0  0  0  0  0  0  0  0  0
   -1.6757    5.2854    2.1546 N   0  0  0  0  0  0  0  0  0  0  0  0
   -1.3374    3.9826    2.2232 C   0  0  0  0  0  0  0  0  0  0  0  0
   -1.3903    3.3973    3.2841 O   0  0  0  0  0  0  0  0  0  0  0  0
   -0.8935    3.2530    0.9815 C   0  0  2  0  0  0  0  0  0  0  0  0
    0.0014    3.7249    0.5758 H   0  0  0  0  0  0  0  0  0  0  0  0
   -2.0116    3.2873   -0.0627 C   0  0  0  0  0  0  0  0  0  0  0  0
   -1.6942    2.3499   -1.1908 C   0  0  0  0  0  0  0  0  0  0  0  0
   -0.8129    1.4043   -1.1219 C   0  0  0  0  0  0  0  0  0  0  0  0
    0.0221    1.1200    0.0922 C   0  0  0  0  0  0  0  0  0  0  0  0
   -0.5966    1.7878    1.3222 C   0  0  1  0  0  0  0  0  0  0  0  0
   -1.5218    1.2774    1.5898 H   0  0  0  0  0  0  0  0  0  0  0  0
    0.3730    1.7253    2.4741 C   0  0  0  0  0  0  0  0  0  0  0  0
    0.7701    2.7454    2.9856 O   0  0  0  0  0  0  0  0  0  0  0  0
   -0.6126    0.5352   -2.3366 C   0  0  0  0  0  0  0  0  0  0  0  0
   -2.4480    2.5203   -2.4845 C   0  0  0  0  0  0  0  0  0  0  0  0
   -2.4864    8.1968    2.2790 C   0  0  0  0  0  0  0  0  0  0  0  0
   -2.1586    7.7949    1.1787 O   0  0  0  0  0  0  0  0  0  0  0  0
   -2.8657    9.4808    2.4426 O   0  0  0  0  0  0  0  0  0  0  0  0
   -2.8587   10.3258    1.2618 C   0  0  0  0  0  0  0  0  0  0  0  0
   -4.3605    6.1957    9.4947 H   0  0  0  0  0  0  0  0  0  0  0  0
   -4.7607    7.9028    9.1884 H   0  0  0  0  0  0  0  0  0  0  0  0
   -6.0221    6.6545    9.0509 H   0  0  0  0  0  0  0  0  0  0  0  0
   -5.2276    7.3671    6.8127 H   0  0  0  0  0  0  0  0  0  0  0  0
   -4.8274    5.6600    7.1190 H   0  0  0  0  0  0  0  0  0  0  0  0
   -2.5341    6.3187    7.7941 H   0  0  0  0  0  0  0  0  0  0  0  0
   -2.9344    8.0259    7.4879 H   0  0  0  0  0  0  0  0  0  0  0  0
   -3.1620    8.7428    4.9348 H   0  0  0  0  0  0  0  0  0  0  0  0
   -1.6334    5.7534    1.3061 H   0  0  0  0  0  0  0  0  0  0  0  0
   -2.1114    4.3004   -0.4520 H   0  0  0  0  0  0  0  0  0  0  0  0
   -2.9503    2.9873    0.4031 H   0  0  0  0  0  0  0  0  0  0  0  0
    0.0716    0.0429    0.2525 H   0  0  0  0  0  0  0  0  0  0  0  0
    1.0285    1.5089   -0.0623 H   0  0  0  0  0  0  0  0  0  0  0  0
   -1.3477   -0.2696   -2.3327 H   0  0  0  0  0  0  0  0  0  0  0  0
   -0.7363    1.1360   -3.2376 H   0  0  0  0  0  0  0  0  0  0  0  0
    0.3912    0.1106   -2.3180 H   0  0  0  0  0  0  0  0  0  0  0  0
   -2.9222    1.5771   -2.7557 H   0  0  0  0  0  0  0  0  0  0  0  0
   -3.2114    3.2886   -2.3617 H   0  0  0  0  0  0  0  0  0  0  0  0
   -1.7557    2.8186   -3.2718 H   0  0  0  0  0  0  0  0  0  0  0  0
   -3.1838   11.3304    1.5320 H   0  0  0  0  0  0  0  0  0  0  0  0
   -1.8497   10.3684    0.8516 H   0  0  0  0  0  0  0  0  0  0  0  0
   -3.5372    9.9127    0.5154 H   0  0  0  0  0  0  0  0  0  0  0  0
    0.7955    0.5363    2.9319 O   0  5  0  0  0  0  0  0  0  0  0  0
  1  2  1  0  0  0  0
  1 28  1  0  0  0  0
  1 29  1  0  0  0  0
  1 30  1  0  0  0  0
  2  3  1  0  0  0  0
  2 31  1  0  0  0  0
  2 32  1  0  0  0  0
  3  4  1  0  0  0  0
  3 33  1  0  0  0  0
  3 34  1  0  0  0  0
  4  8  1  0  0  0  0
  4  5  2  0  0  0  0
  5  6  1  0  0  0  0
  5 35  1  0  0  0  0
  6  7  2  0  0  0  0
  6 24  1  0  0  0  0
  7  8  1  0  0  0  0
  7  9  1  0  0  0  0
  9 10  1  0  0  0  0
  9 36  1  0  0  0  0
 10 11  2  0  0  0  0
 10 12  1  0  0  0  0
 12 13  1  0  0  0  0
 12 18  1  0  0  0  0
 12 14  1  0  0  0  0
 14 15  1  0  0  0  0
 14 37  1  0  0  0  0
 14 38  1  0  0  0  0
 15 16  2  0  0  0  0
 15 23  1  0  0  0  0
 16 17  1  0  0  0  0
 16 22  1  0  0  0  0
 17 18  1  0  0  0  0
 17 39  1  0  0  0  0
 17 40  1  0  0  0  0
 18 19  1  0  0  0  0
 18 20  1  0  0  0  0
 20 21  2  0  0  0  0
 20 50  1  0  0  0  0
 22 41  1  0  0  0  0
 22 42  1  0  0  0  0
 22 43  1  0  0  0  0
 23 44  1  0  0  0  0
 23 45  1  0  0  0  0
 23 46  1  0  0  0  0
 24 25  2  0  0  0  0
 24 26  1  0  0  0  0
 26 27  1  0  0  0  0
 27 47  1  0  0  0  0
 27 48  1  0  0  0  0
 27 49  1  0  0  0  0
M  CHG  1  50  -1
M  END
$$$$
ZINC03864114
  -OEChem-08230709463D

 57 59  0     1  0  0  0  0  0999 V2000
   -8.6736   -2.2808    6.5300 C   0  0  0  0  0  0  0  0  0  0  0  0
   -8.7753   -1.3635    5.3387 C   0  0  0  0  0  0  0  0  0  0  0  0
   -9.9559   -1.0030    4.9493 C   0  0  0  0  0  0  0  0  0  0  0  0
  -10.2155   -0.0875    3.7889 C   0  0  0  0  0  0  0  0  0  0  0  0
   -8.9718    0.0053    2.9023 C   0  0  2  0  0  0  0  0  0  0  0  0
   -8.8221   -0.9401    2.3809 H   0  0  0  0  0  0  0  0  0  0  0  0
   -7.7599    0.2989    3.7956 C   0  0  1  0  0  0  0  0  0  0  0  0
   -7.9670    1.1679    4.4201 H   0  0  0  0  0  0  0  0  0  0  0  0
   -7.5014   -0.9243    4.6780 C   0  0  0  0  0  0  0  0  0  0  0  0
   -6.5511    0.5687    2.9371 C   0  0  0  0  0  0  0  0  0  0  0  0
   -6.6451    0.5309    1.7285 O   0  0  0  0  0  0  0  0  0  0  0  0
   -5.3656    0.8519    3.5123 N   0  0  0  0  0  0  0  0  0  0  0  0
   -4.2539    1.1001    2.7226 C   0  0  0  0  0  0  0  0  0  0  0  0
   -2.9605    1.4061    3.1250 C   0  0  0  0  0  0  0  0  0  0  0  0
   -1.9677    1.6221    2.0856 C   0  0  0  0  0  0  0  0  0  0  0  0
   -2.4235    1.4991    0.8204 C   0  0  0  0  0  0  0  0  0  0  0  0
   -4.1401    1.1024    0.9937 S   0  0  0  0  0  0  0  0  0  0  0  0
   -1.6368    1.6653   -0.4432 C   0  0  0  0  0  0  0  0  0  0  0  0
   -0.3139    2.3658   -0.1007 C   0  0  0  0  0  0  0  0  0  0  0  0
    0.3143    1.6690    1.1097 C   0  0  0  0  0  0  0  0  0  0  0  0
   -0.5109    1.9638    2.3636 C   0  0  0  0  0  0  0  0  0  0  0  0
   -2.6099    1.5071    4.5432 C   0  0  0  0  0  0  0  0  0  0  0  0
   -2.7023    2.5751    5.1180 O   0  0  0  0  0  0  0  0  0  0  0  0
   -2.1845    0.4157    5.2121 O   0  0  0  0  0  0  0  0  0  0  0  0
   -1.8545    0.5897    6.6153 C   0  0  0  0  0  0  0  0  0  0  0  0
   -3.1007    0.3398    7.4671 C   0  0  0  0  0  0  0  0  0  0  0  0
   -0.7600   -0.4043    7.0089 C   0  0  0  0  0  0  0  0  0  0  0  0
   -9.1419    1.1161    1.8982 C   0  0  0  0  0  0  0  0  0  0  0  0
   -8.3745    2.0494    1.8939 O   0  0  0  0  0  0  0  0  0  0  0  0
  -11.1437   -1.5354    5.7088 C   0  0  0  0  0  0  0  0  0  0  0  0
   -9.2735   -3.1736    6.3534 H   0  0  0  0  0  0  0  0  0  0  0  0
   -7.6326   -2.5667    6.6807 H   0  0  0  0  0  0  0  0  0  0  0  0
   -9.0411   -1.7658    7.4176 H   0  0  0  0  0  0  0  0  0  0  0  0
  -10.4685    0.9052    4.1614 H   0  0  0  0  0  0  0  0  0  0  0  0
  -11.0484   -0.4768    3.2034 H   0  0  0  0  0  0  0  0  0  0  0  0
   -7.1139   -1.7373    4.0641 H   0  0  0  0  0  0  0  0  0  0  0  0
   -6.7671   -0.6698    5.4423 H   0  0  0  0  0  0  0  0  0  0  0  0
   -5.2905    0.8822    4.4789 H   0  0  0  0  0  0  0  0  0  0  0  0
   -2.2017    2.2729   -1.1502 H   0  0  0  0  0  0  0  0  0  0  0  0
   -1.4324    0.6877   -0.8797 H   0  0  0  0  0  0  0  0  0  0  0  0
   -0.5056    3.4118    0.1387 H   0  0  0  0  0  0  0  0  0  0  0  0
    0.3643    2.3020   -0.9516 H   0  0  0  0  0  0  0  0  0  0  0  0
    0.3378    0.5932    0.9363 H   0  0  0  0  0  0  0  0  0  0  0  0
    1.3311    2.0353    1.2510 H   0  0  0  0  0  0  0  0  0  0  0  0
   -0.1466    1.3562    3.1919 H   0  0  0  0  0  0  0  0  0  0  0  0
   -0.4252    3.0203    2.6174 H   0  0  0  0  0  0  0  0  0  0  0  0
   -1.4987    1.6065    6.7816 H   0  0  0  0  0  0  0  0  0  0  0  0
   -3.4565   -0.6770    7.3008 H   0  0  0  0  0  0  0  0  0  0  0  0
   -2.8530    0.4704    8.5205 H   0  0  0  0  0  0  0  0  0  0  0  0
   -3.8804    1.0480    7.1867 H   0  0  0  0  0  0  0  0  0  0  0  0
    0.1278   -0.2263    6.4021 H   0  0  0  0  0  0  0  0  0  0  0  0
   -0.5123   -0.2737    8.0623 H   0  0  0  0  0  0  0  0  0  0  0  0
   -1.1158   -1.4211    6.8427 H   0  0  0  0  0  0  0  0  0  0  0  0
  -11.4120   -2.5182    5.3211 H   0  0  0  0  0  0  0  0  0  0  0  0
  -10.8916   -1.6183    6.7660 H   0  0  0  0  0  0  0  0  0  0  0  0
  -11.9866   -0.8549    5.5885 H   0  0  0  0  0  0  0  0  0  0  0  0
  -10.1459    1.0688    1.0086 O   0  5  0  0  0  0  0  0  0  0  0  0
  1  2  1  0  0  0  0
  1 31  1  0  0  0  0
  1 32  1  0  0  0  0
  1 33  1  0  0  0  0
  2  9  1  0  0  0  0
  2  3  2  0  0  0  0
  3  4  1  0  0  0  0
  3 30  1  0  0  0  0
  4  5  1  0  0  0  0
  4 34  1  0  0  0  0
  4 35  1  0  0  0  0
  5  6  1  0  0  0  0
  5  7  1  0  0  0  0
  5 28  1  0  0  0  0
  7  8  1  0  0  0  0
  7  9  1  0  0  0  0
  7 10  1  0  0  0  0
  9 36  1  0  0  0  0
  9 37  1  0  0  0  0
 10 11  2  0  0  0  0
 10 12  1  0  0  0  0
 12 13  1  0  0  0  0
 12 38  1  0  0  0  0
 13 17  1  0  0  0  0
 13 14  2  0  0  0  0
 14 15  1  0  0  0  0
 14 22  1  0  0  0  0
 15 21  1  0  0  0  0
 15 16  2  0  0  0  0
 16 17  1  0  0  0  0
 16 18  1  0  0  0  0
 18 19  1  0  0  0  0
 18 39  1  0  0  0  0
 18 40  1  0  0  0  0
 19 20  1  0  0  0  0
 19 41  1  0  0  0  0
 19 42  1  0  0  0  0
 20 21  1  0  0  0  0
 20 43  1  0  0  0  0
 20 44  1  0  0  0  0
 21 45  1  0  0  0  0
 21 46  1  0  0  0  0
 22 23  2  0  0  0  0
 22 24  1  0  0  0  0
 24 25  1  0  0  0  0
 25 26  1  0  0  0  0
 25 27  1  0  0  0  0
 25 47  1  0  0  0  0
 26 48  1  0  0  0  0
 26 49  1  0  0  0  0
 26 50  1  0  0  0  0
 27 51  1  0  0  0  0
 27 52  1  0  0  0  0
 27 53  1  0  0  0  0
 28 29  2  0  0  0  0
 28 57  1  0  0  0  0
 30 54  1  0  0  0  0
 30 55  1  0  0  0  0
 30 56  1  0  0  0  0
M  CHG  1  57  -1
M  END
$$$$
ZINC03864118
  -OEChem-08230709463D

 53 55  0     1  0  0  0  0  0999 V2000
    3.8497    1.6701   -0.1059 C   0  0  0  0  0  0  0  0  0  0  0  0
    2.4155    1.2546    0.0978 C   0  0  0  0  0  0  0  0  0  0  0  0
    1.3734    1.9530    0.6413 C   0  0  0  0  0  0  0  0  0  0  0  0
    0.1806    1.3826    0.7218 N   0  0  0  0  0  0  0  0  0  0  0  0
   -0.0217    0.1528    0.2875 C   0  0  0  0  0  0  0  0  0  0  0  0
    1.6061   -0.2883   -0.3045 S   0  0  0  0  0  0  0  0  0  0  0  0
   -1.1901   -0.5994    0.2899 N   0  0  0  0  0  0  0  0  0  0  0  0
   -1.1859   -1.8524   -0.2065 C   0  0  0  0  0  0  0  0  0  0  0  0
   -0.1623   -2.3234   -0.6553 O   0  0  0  0  0  0  0  0  0  0  0  0
   -2.4530   -2.6681   -0.2039 C   0  0  2  0  0  0  0  0  0  0  0  0
   -3.1426   -2.2714    0.5412 H   0  0  0  0  0  0  0  0  0  0  0  0
   -2.1251   -4.1265    0.1235 C   0  0  0  0  0  0  0  0  0  0  0  0
   -1.3939   -4.7587   -1.0307 C   0  0  0  0  0  0  0  0  0  0  0  0
   -1.3674   -4.2707   -2.2293 C   0  0  0  0  0  0  0  0  0  0  0  0
   -2.0554   -3.0002   -2.6352 C   0  0  0  0  0  0  0  0  0  0  0  0
   -3.1049   -2.6124   -1.5913 C   0  0  2  0  0  0  0  0  0  0  0  0
   -3.9390   -3.3129   -1.6326 H   0  0  0  0  0  0  0  0  0  0  0  0
   -3.6025   -1.2158   -1.8615 C   0  0  0  0  0  0  0  0  0  0  0  0
   -3.4531   -0.3502   -1.0319 O   0  0  0  0  0  0  0  0  0  0  0  0
    1.5765    3.3365    1.1356 C   0  0  0  0  0  0  0  0  0  0  0  0
    1.0085    3.7383    2.3434 C   0  0  0  0  0  0  0  0  0  0  0  0
    1.2048    5.0254    2.8009 C   0  0  0  0  0  0  0  0  0  0  0  0
    1.9553    5.9192    2.0582 C   0  0  0  0  0  0  0  0  0  0  0  0
    2.5170    5.5276    0.8563 C   0  0  0  0  0  0  0  0  0  0  0  0
    2.3314    4.2416    0.3914 C   0  0  0  0  0  0  0  0  0  0  0  0
    2.1613    7.3251    2.5603 C   0  0  0  0  0  0  0  0  0  0  0  0
    1.0394    8.2235    2.0356 C   0  0  0  0  0  0  0  0  0  0  0  0
    1.1776    9.6203    2.6447 C   0  0  0  0  0  0  0  0  0  0  0  0
    1.1339    8.3201    0.5116 C   0  0  0  0  0  0  0  0  0  0  0  0
    4.4233    0.8233   -0.4828 H   0  0  0  0  0  0  0  0  0  0  0  0
    3.8924    2.4872   -0.8260 H   0  0  0  0  0  0  0  0  0  0  0  0
    4.2707    2.0002    0.8438 H   0  0  0  0  0  0  0  0  0  0  0  0
   -2.0087   -0.2227    0.6489 H   0  0  0  0  0  0  0  0  0  0  0  0
   -1.5020   -4.1650    1.0169 H   0  0  0  0  0  0  0  0  0  0  0  0
   -3.0506   -4.6724    0.3072 H   0  0  0  0  0  0  0  0  0  0  0  0
   -0.8564   -5.6770   -0.8458 H   0  0  0  0  0  0  0  0  0  0  0  0
   -0.8163   -4.8116   -2.9843 H   0  0  0  0  0  0  0  0  0  0  0  0
   -2.5416   -3.1450   -3.5999 H   0  0  0  0  0  0  0  0  0  0  0  0
   -1.3184   -2.2016   -2.7205 H   0  0  0  0  0  0  0  0  0  0  0  0
    0.4187    3.0426    2.9218 H   0  0  0  0  0  0  0  0  0  0  0  0
    0.7683    5.3367    3.7384 H   0  0  0  0  0  0  0  0  0  0  0  0
    3.1017    6.2297    0.2805 H   0  0  0  0  0  0  0  0  0  0  0  0
    2.7704    3.9369   -0.5471 H   0  0  0  0  0  0  0  0  0  0  0  0
    2.1487    7.3272    3.6502 H   0  0  0  0  0  0  0  0  0  0  0  0
    3.1220    7.6999    2.2073 H   0  0  0  0  0  0  0  0  0  0  0  0
    0.0745    7.7997    2.3137 H   0  0  0  0  0  0  0  0  0  0  0  0
    2.1425   10.0441    2.3666 H   0  0  0  0  0  0  0  0  0  0  0  0
    0.3784   10.2603    2.2709 H   0  0  0  0  0  0  0  0  0  0  0  0
    1.1102    9.5515    3.7304 H   0  0  0  0  0  0  0  0  0  0  0  0
    2.0989    8.7439    0.2335 H   0  0  0  0  0  0  0  0  0  0  0  0
    1.0355    7.3250    0.0777 H   0  0  0  0  0  0  0  0  0  0  0  0
    0.3347    8.9601    0.1378 H   0  0  0  0  0  0  0  0  0  0  0  0
   -4.2117   -0.9335   -3.0238 O   0  5  0  0  0  0  0  0  0  0  0  0
  1  2  1  0  0  0  0
  1 30  1  0  0  0  0
  1 31  1  0  0  0  0
  1 32  1  0  0  0  0
  2  6  1  0  0  0  0
  2  3  2  0  0  0  0
  3  4  1  0  0  0  0
  3 20  1  0  0  0  0
  4  5  2  0  0  0  0
  5  6  1  0  0  0  0
  5  7  1  0  0  0  0
  7  8  1  0  0  0  0
  7 33  1  0  0  0  0
  8  9  2  0  0  0  0
  8 10  1  0  0  0  0
 10 11  1  0  0  0  0
 10 16  1  0  0  0  0
 10 12  1  0  0  0  0
 12 13  1  0  0  0  0
 12 34  1  0  0  0  0
 12 35  1  0  0  0  0
 13 14  2  0  0  0  0
 13 36  1  0  0  0  0
 14 15  1  0  0  0  0
 14 37  1  0  0  0  0
 15 16  1  0  0  0  0
 15 38  1  0  0  0  0
 15 39  1  0  0  0  0
 16 17  1  0  0  0  0
 16 18  1  0  0  0  0
 18 19  2  0  0  0  0
 18 53  1  0  0  0  0
 20 25  2  0  0  0  0
 20 21  1  0  0  0  0
 21 22  2  0  0  0  0
 21 40  1  0  0  0  0
 22 23  1  0  0  0  0
 22 41  1  0  0  0  0
 23 24  2  0  0  0  0
 23 26  1  0  0  0  0
 24 25  1  0  0  0  0
 24 42  1  0  0  0  0
 25 43  1  0  0  0  0
 26 27  1  0  0  0  0
 26 44  1  0  0  0  0
 26 45  1  0  0  0  0
 27 28  1  0  0  0  0
 27 29  1  0  0  0  0
 27 46  1  0  0  0  0
 28 47  1  0  0  0  0
 28 48  1  0  0  0  0
 28 49  1  0  0  0  0
 29 50  1  0  0  0  0
 29 51  1  0  0  0  0
 29 52  1  0  0  0  0
M  CHG  1  53  -1
M  END
$$$$
ZINC03864121
  -OEChem-08230709463D

 57 59  0     1  0  0  0  0  0999 V2000
   10.4875    3.6237    8.6049 C   0  0  0  0  0  0  0  0  0  0  0  0
    9.1956    3.8389    7.8139 C   0  0  0  0  0  0  0  0  0  0  0  0
    9.4391    3.5913    6.4277 O   0  0  0  0  0  0  0  0  0  0  0  0
    8.3867    3.7393    5.5804 C   0  0  0  0  0  0  0  0  0  0  0  0
    8.5551    3.5140    4.2210 C   0  0  0  0  0  0  0  0  0  0  0  0
    7.4892    3.6628    3.3585 C   0  0  0  0  0  0  0  0  0  0  0  0
    6.2414    4.0399    3.8534 C   0  0  0  0  0  0  0  0  0  0  0  0
    6.0770    4.2705    5.2186 C   0  0  0  0  0  0  0  0  0  0  0  0
    7.1458    4.1148    6.0763 C   0  0  0  0  0  0  0  0  0  0  0  0
    5.0935    4.2013    2.9291 C   0  0  0  0  0  0  0  0  0  0  0  0
    5.1896    4.9449    1.7978 C   0  0  0  0  0  0  0  0  0  0  0  0
    3.5697    4.7994    1.0731 S   0  0  0  0  0  0  0  0  0  0  0  0
    2.8081    3.7907    2.2558 C   0  0  0  0  0  0  0  0  0  0  0  0
    3.8128    3.5718    3.1894 C   0  0  0  0  0  0  0  0  0  0  0  0
    3.5905    2.7467    4.3767 C   0  0  0  0  0  0  0  0  0  0  0  0
    3.8086    1.5505    4.3356 O   0  0  0  0  0  0  0  0  0  0  0  0
    3.1436    3.3121    5.5170 O   0  0  0  0  0  0  0  0  0  0  0  0
    2.9457    2.4326    6.6553 C   0  0  0  0  0  0  0  0  0  0  0  0
    2.4401    3.2474    7.8475 C   0  0  0  0  0  0  0  0  0  0  0  0
    1.5080    3.3110    2.2656 N   0  0  0  0  0  0  0  0  0  0  0  0
    0.6642    3.6307    1.2645 C   0  0  0  0  0  0  0  0  0  0  0  0
    1.0427    4.3382    0.3551 O   0  0  0  0  0  0  0  0  0  0  0  0
   -0.7496    3.1091    1.2752 C   0  0  2  0  0  0  0  0  0  0  0  0
   -1.2598    3.4606    2.1720 H   0  0  0  0  0  0  0  0  0  0  0  0
   -0.7288    1.5792    1.2668 C   0  0  0  0  0  0  0  0  0  0  0  0
   -0.0127    1.0858    0.0080 C   0  0  0  0  0  0  0  0  0  0  0  0
   -0.7527    1.5927   -1.2315 C   0  0  0  0  0  0  0  0  0  0  0  0
   -0.7734    3.1225   -1.2231 C   0  0  0  0  0  0  0  0  0  0  0  0
   -1.4896    3.6159    0.0357 C   0  0  2  0  0  0  0  0  0  0  0  0
   -2.5122    3.2386    0.0434 H   0  0  0  0  0  0  0  0  0  0  0  0
   -1.5100    5.1227    0.0440 C   0  0  0  0  0  0  0  0  0  0  0  0
   -0.9864    5.7291    0.9485 O   0  0  0  0  0  0  0  0  0  0  0  0
   10.3018    3.8125    9.6622 H   0  0  0  0  0  0  0  0  0  0  0  0
   10.8272    2.5963    8.4734 H   0  0  0  0  0  0  0  0  0  0  0  0
   11.2538    4.3089    8.2425 H   0  0  0  0  0  0  0  0  0  0  0  0
    8.8560    4.8662    7.9453 H   0  0  0  0  0  0  0  0  0  0  0  0
    8.4293    3.1536    8.1762 H   0  0  0  0  0  0  0  0  0  0  0  0
    9.5220    3.2223    3.8383 H   0  0  0  0  0  0  0  0  0  0  0  0
    7.6210    3.4878    2.3010 H   0  0  0  0  0  0  0  0  0  0  0  0
    5.1128    4.5670    5.6045 H   0  0  0  0  0  0  0  0  0  0  0  0
    7.0181    4.2893    7.1345 H   0  0  0  0  0  0  0  0  0  0  0  0
    6.0439    5.4902    1.4250 H   0  0  0  0  0  0  0  0  0  0  0  0
    2.2119    1.6680    6.4004 H   0  0  0  0  0  0  0  0  0  0  0  0
    3.8911    1.9566    6.9154 H   0  0  0  0  0  0  0  0  0  0  0  0
    3.1739    4.0121    8.1024 H   0  0  0  0  0  0  0  0  0  0  0  0
    1.4946    3.7235    7.5874 H   0  0  0  0  0  0  0  0  0  0  0  0
    2.2915    2.5872    8.7020 H   0  0  0  0  0  0  0  0  0  0  0  0
    1.2053    2.7452    2.9930 H   0  0  0  0  0  0  0  0  0  0  0  0
   -1.7514    1.2020    1.2746 H   0  0  0  0  0  0  0  0  0  0  0  0
   -0.2017    1.2182    2.1499 H   0  0  0  0  0  0  0  0  0  0  0  0
    0.0021   -0.0041    0.0020 H   0  0  0  0  0  0  0  0  0  0  0  0
    1.0099    1.4631    0.0003 H   0  0  0  0  0  0  0  0  0  0  0  0
   -0.2425    1.2411   -2.1283 H   0  0  0  0  0  0  0  0  0  0  0  0
   -1.7753    1.2154   -1.2238 H   0  0  0  0  0  0  0  0  0  0  0  0
    0.2491    3.4998   -1.2308 H   0  0  0  0  0  0  0  0  0  0  0  0
   -1.3006    3.4836   -2.1062 H   0  0  0  0  0  0  0  0  0  0  0  0
   -2.1099    5.7913   -0.9535 O   0  5  0  0  0  0  0  0  0  0  0  0
  1  2  1  0  0  0  0
  1 33  1  0  0  0  0
  1 34  1  0  0  0  0
  1 35  1  0  0  0  0
  2  3  1  0  0  0  0
  2 36  1  0  0  0  0
  2 37  1  0  0  0  0
  3  4  1  0  0  0  0
  4  9  2  0  0  0  0
  4  5  1  0  0  0  0
  5  6  2  0  0  0  0
  5 38  1  0  0  0  0
  6  7  1  0  0  0  0
  6 39  1  0  0  0  0
  7  8  2  0  0  0  0
  7 10  1  0  0  0  0
  8  9  1  0  0  0  0
  8 40  1  0  0  0  0
  9 41  1  0  0  0  0
 10 14  1  0  0  0  0
 10 11  2  0  0  0  0
 11 12  1  0  0  0  0
 11 42  1  0  0  0  0
 12 13  1  0  0  0  0
 13 14  2  0  0  0  0
 13 20  1  0  0  0  0
 14 15  1  0  0  0  0
 15 16  2  0  0  0  0
 15 17  1  0  0  0  0
 17 18  1  0  0  0  0
 18 19  1  0  0  0  0
 18 43  1  0  0  0  0
 18 44  1  0  0  0  0
 19 45  1  0  0  0  0
 19 46  1  0  0  0  0
 19 47  1  0  0  0  0
 20 21  1  0  0  0  0
 20 48  1  0  0  0  0
 21 22  2  0  0  0  0
 21 23  1  0  0  0  0
 23 24  1  0  0  0  0
 23 29  1  0  0  0  0
 23 25  1  0  0  0  0
 25 26  1  0  0  0  0
 25 49  1  0  0  0  0
 25 50  1  0  0  0  0
 26 27  1  0  0  0  0
 26 51  1  0  0  0  0
 26 52  1  0  0  0  0
 27 28  1  0  0  0  0
 27 53  1  0  0  0  0
 27 54  1  0  0  0  0
 28 29  1  0  0  0  0
 28 55  1  0  0  0  0
 28 56  1  0  0  0  0
 29 30  1  0  0  0  0
 29 31  1  0  0  0  0
 31 32  2  0  0  0  0
 31 57  1  0  0  0  0
M  CHG  1  57  -1
M  END
$$$$
ZINC03864124
  -OEChem-08230709463D

 53 55  0     1  0  0  0  0  0999 V2000
    3.4973   -0.3008   -1.4336 C   0  0  0  0  0  0  0  0  0  0  0  0
    2.2960    0.2224   -0.6891 C   0  0  0  0  0  0  0  0  0  0  0  0
    2.3744    1.4255   -0.0103 C   0  0  0  0  0  0  0  0  0  0  0  0
    1.2761    1.9117    0.6755 C   0  0  0  0  0  0  0  0  0  0  0  0
    0.0944    1.1988    0.6857 C   0  0  0  0  0  0  0  0  0  0  0  0
    0.0092   -0.0138    0.0033 C   0  0  0  0  0  0  0  0  0  0  0  0
    1.1200   -0.4992   -0.6860 C   0  0  0  0  0  0  0  0  0  0  0  0
   -1.2572   -0.7840    0.0100 C   0  0  0  0  0  0  0  0  0  0  0  0
   -1.6532   -1.4938    1.0971 C   0  0  0  0  0  0  0  0  0  0  0  0
   -3.2002   -2.2073    0.5794 S   0  0  0  0  0  0  0  0  0  0  0  0
   -3.2946   -1.5700   -1.0273 C   0  0  0  0  0  0  0  0  0  0  0  0
   -2.1374   -0.8113   -1.1429 C   0  0  0  0  0  0  0  0  0  0  0  0
   -1.8188   -0.0796   -2.3690 C   0  0  0  0  0  0  0  0  0  0  0  0
   -1.2544   -0.6458   -3.2859 O   0  0  0  0  0  0  0  0  0  0  0  0
   -2.1510    1.2229   -2.4828 O   0  0  0  0  0  0  0  0  0  0  0  0
   -1.8041    1.8853   -3.7275 C   0  0  0  0  0  0  0  0  0  0  0  0
   -4.2904   -1.7656   -1.9709 N   0  0  0  0  0  0  0  0  0  0  0  0
   -5.3554   -2.5374   -1.6767 C   0  0  0  0  0  0  0  0  0  0  0  0
   -5.4422   -3.0608   -0.5861 O   0  0  0  0  0  0  0  0  0  0  0  0
   -6.4384   -2.7500   -2.7028 C   0  0  1  0  0  0  0  0  0  0  0  0
   -6.8762   -1.7892   -2.9734 H   0  0  0  0  0  0  0  0  0  0  0  0
   -5.8391   -3.4062   -3.9483 C   0  0  0  0  0  0  0  0  0  0  0  0
   -6.9386   -3.6221   -4.9901 C   0  0  0  0  0  0  0  0  0  0  0  0
   -8.0227   -4.5304   -4.4067 C   0  0  0  0  0  0  0  0  0  0  0  0
   -8.6220   -3.8742   -3.1612 C   0  0  0  0  0  0  0  0  0  0  0  0
   -7.5225   -3.6584   -2.1194 C   0  0  2  0  0  0  0  0  0  0  0  0
   -7.0847   -4.6192   -1.8488 H   0  0  0  0  0  0  0  0  0  0  0  0
   -8.1128   -3.0120   -0.8927 C   0  0  0  0  0  0  0  0  0  0  0  0
   -7.7079   -1.9353   -0.5229 O   0  0  0  0  0  0  0  0  0  0  0  0
   -1.1034    1.7332    1.4279 C   0  0  0  0  0  0  0  0  0  0  0  0
    3.4797    0.0704   -2.4583 H   0  0  0  0  0  0  0  0  0  0  0  0
    4.4074    0.0394   -0.9395 H   0  0  0  0  0  0  0  0  0  0  0  0
    3.4737   -1.3905   -1.4414 H   0  0  0  0  0  0  0  0  0  0  0  0
    3.2970    1.9870   -0.0158 H   0  0  0  0  0  0  0  0  0  0  0  0
    1.3433    2.8513    1.2039 H   0  0  0  0  0  0  0  0  0  0  0  0
    1.0597   -1.4378   -1.2168 H   0  0  0  0  0  0  0  0  0  0  0  0
   -1.1511   -1.5999    2.0474 H   0  0  0  0  0  0  0  0  0  0  0  0
   -0.7245    1.8447   -3.8720 H   0  0  0  0  0  0  0  0  0  0  0  0
   -2.3010    1.3827   -4.5573 H   0  0  0  0  0  0  0  0  0  0  0  0
   -2.1265    2.9258   -3.6874 H   0  0  0  0  0  0  0  0  0  0  0  0
   -4.2210   -1.3469   -2.8431 H   0  0  0  0  0  0  0  0  0  0  0  0
   -5.0667   -2.7591   -4.3639 H   0  0  0  0  0  0  0  0  0  0  0  0
   -5.4012   -4.3671   -3.6777 H   0  0  0  0  0  0  0  0  0  0  0  0
   -6.5116   -4.0896   -5.8774 H   0  0  0  0  0  0  0  0  0  0  0  0
   -7.3764   -2.6613   -5.2607 H   0  0  0  0  0  0  0  0  0  0  0  0
   -7.5849   -5.4913   -4.1361 H   0  0  0  0  0  0  0  0  0  0  0  0
   -8.8061   -4.6842   -5.1489 H   0  0  0  0  0  0  0  0  0  0  0  0
   -9.3944   -4.5214   -2.7456 H   0  0  0  0  0  0  0  0  0  0  0  0
   -9.0599   -2.9134   -3.4318 H   0  0  0  0  0  0  0  0  0  0  0  0
   -1.1416    1.2900    2.4230 H   0  0  0  0  0  0  0  0  0  0  0  0
   -1.0228    2.8167    1.5155 H   0  0  0  0  0  0  0  0  0  0  0  0
   -2.0120    1.4793    0.8820 H   0  0  0  0  0  0  0  0  0  0  0  0
   -9.0884   -3.6324   -0.2107 O   0  5  0  0  0  0  0  0  0  0  0  0
  1  2  1  0  0  0  0
  1 31  1  0  0  0  0
  1 32  1  0  0  0  0
  1 33  1  0  0  0  0
  2  7  2  0  0  0  0
  2  3  1  0  0  0  0
  3  4  2  0  0  0  0
  3 34  1  0  0  0  0
  4  5  1  0  0  0  0
  4 35  1  0  0  0  0
  5  6  2  0  0  0  0
  5 30  1  0  0  0  0
  6  7  1  0  0  0  0
  6  8  1  0  0  0  0
  7 36  1  0  0  0  0
  8 12  1  0  0  0  0
  8  9  2  0  0  0  0
  9 10  1  0  0  0  0
  9 37  1  0  0  0  0
 10 11  1  0  0  0  0
 11 12  2  0  0  0  0
 11 17  1  0  0  0  0
 12 13  1  0  0  0  0
 13 14  2  0  0  0  0
 13 15  1  0  0  0  0
 15 16  1  0  0  0  0
 16 38  1  0  0  0  0
 16 39  1  0  0  0  0
 16 40  1  0  0  0  0
 17 18  1  0  0  0  0
 17 41  1  0  0  0  0
 18 19  2  0  0  0  0
 18 20  1  0  0  0  0
 20 21  1  0  0  0  0
 20 26  1  0  0  0  0
 20 22  1  0  0  0  0
 22 23  1  0  0  0  0
 22 42  1  0  0  0  0
 22 43  1  0  0  0  0
 23 24  1  0  0  0  0
 23 44  1  0  0  0  0
 23 45  1  0  0  0  0
 24 25  1  0  0  0  0
 24 46  1  0  0  0  0
 24 47  1  0  0  0  0
 25 26  1  0  0  0  0
 25 48  1  0  0  0  0
 25 49  1  0  0  0  0
 26 27  1  0  0  0  0
 26 28  1  0  0  0  0
 28 29  2  0  0  0  0
 28 53  1  0  0  0  0
 30 50  1  0  0  0  0
 30 51  1  0  0  0  0
 30 52  1  0  0  0  0
M  CHG  1  53  -1
M  END
$$$$
ZINC03864132
  -OEChem-08230709463D

 51 53  0     1  0  0  0  0  0999 V2000
   -0.3295    5.4142   -1.3660 C   0  0  0  0  0  0  0  0  0  0  0  0
   -0.1733    4.1004   -0.6445 C   0  0  0  0  0  0  0  0  0  0  0  0
   -1.2472    3.5544    0.0359 C   0  0  0  0  0  0  0  0  0  0  0  0
   -1.1128    2.3463    0.6959 C   0  0  0  0  0  0  0  0  0  0  0  0
    0.0979    1.6836    0.6882 C   0  0  0  0  0  0  0  0  0  0  0  0
    1.1833    2.2287    0.0040 C   0  0  0  0  0  0  0  0  0  0  0  0
    1.0403    3.4443   -0.6640 C   0  0  0  0  0  0  0  0  0  0  0  0
    2.4843    1.5186   -0.0136 C   0  0  0  0  0  0  0  0  0  0  0  0
    3.3076    1.5137    1.0656 C   0  0  0  0  0  0  0  0  0  0  0  0
    4.6949    0.5411    0.5183 S   0  0  0  0  0  0  0  0  0  0  0  0
    4.1750    0.1665   -1.0897 C   0  0  0  0  0  0  0  0  0  0  0  0
    2.9376    0.7895   -1.1831 C   0  0  0  0  0  0  0  0  0  0  0  0
    2.1331    0.7191   -2.4028 C   0  0  0  0  0  0  0  0  0  0  0  0
    2.3318    1.5062   -3.3088 O   0  0  0  0  0  0  0  0  0  0  0  0
    1.1709   -0.2187   -2.5230 O   0  0  0  0  0  0  0  0  0  0  0  0
    0.4119   -0.2297   -3.7608 C   0  0  0  0  0  0  0  0  0  0  0  0
    4.8338   -0.5818   -2.0522 N   0  0  0  0  0  0  0  0  0  0  0  0
    6.0386   -1.1206   -1.7788 C   0  0  0  0  0  0  0  0  0  0  0  0
    6.5461   -0.9506   -0.6905 O   0  0  0  0  0  0  0  0  0  0  0  0
    6.7550   -1.9344   -2.8255 C   0  0  1  0  0  0  0  0  0  0  0  0
    6.1396   -2.7875   -3.1110 H   0  0  0  0  0  0  0  0  0  0  0  0
    7.0350   -1.0631   -4.0519 C   0  0  0  0  0  0  0  0  0  0  0  0
    7.9715   -1.7715   -4.9863 C   0  0  0  0  0  0  0  0  0  0  0  0
    8.7055   -2.7828   -4.6487 C   0  0  0  0  0  0  0  0  0  0  0  0
    8.7152   -3.3946   -3.2785 C   0  0  0  0  0  0  0  0  0  0  0  0
    8.0948   -2.4294   -2.2660 C   0  0  2  0  0  0  0  0  0  0  0  0
    8.7626   -1.5820   -2.1108 H   0  0  0  0  0  0  0  0  0  0  0  0
    7.8656   -3.1399   -0.9569 C   0  0  0  0  0  0  0  0  0  0  0  0
    6.7465   -3.2423   -0.5130 O   0  0  0  0  0  0  0  0  0  0  0  0
    0.2443    0.3704    1.4127 C   0  0  0  0  0  0  0  0  0  0  0  0
   -0.6519    5.2299   -2.3908 H   0  0  0  0  0  0  0  0  0  0  0  0
   -1.0750    6.0232   -0.8546 H   0  0  0  0  0  0  0  0  0  0  0  0
    0.6253    5.9399   -1.3744 H   0  0  0  0  0  0  0  0  0  0  0  0
   -2.1953    4.0714    0.0481 H   0  0  0  0  0  0  0  0  0  0  0  0
   -1.9557    1.9227    1.2216 H   0  0  0  0  0  0  0  0  0  0  0  0
    1.8777    3.8711   -1.1960 H   0  0  0  0  0  0  0  0  0  0  0  0
    3.1573    1.9861    2.0252 H   0  0  0  0  0  0  0  0  0  0  0  0
   -0.0948    0.7274   -3.8847 H   0  0  0  0  0  0  0  0  0  0  0  0
    1.0878   -0.3943   -4.5999 H   0  0  0  0  0  0  0  0  0  0  0  0
   -0.3270   -1.0303   -3.7268 H   0  0  0  0  0  0  0  0  0  0  0  0
    4.4279   -0.7178   -2.9226 H   0  0  0  0  0  0  0  0  0  0  0  0
    6.0981   -0.8547   -4.5685 H   0  0  0  0  0  0  0  0  0  0  0  0
    7.4857   -0.1235   -3.7323 H   0  0  0  0  0  0  0  0  0  0  0  0
    8.0368   -1.4156   -6.0039 H   0  0  0  0  0  0  0  0  0  0  0  0
    9.3514   -3.2129   -5.3999 H   0  0  0  0  0  0  0  0  0  0  0  0
    9.7427   -3.6124   -2.9873 H   0  0  0  0  0  0  0  0  0  0  0  0
    8.1416   -4.3213   -3.2925 H   0  0  0  0  0  0  0  0  0  0  0  0
    0.6544    0.5477    2.4070 H   0  0  0  0  0  0  0  0  0  0  0  0
   -0.7319   -0.1062    1.5020 H   0  0  0  0  0  0  0  0  0  0  0  0
    0.9165   -0.2803    0.8532 H   0  0  0  0  0  0  0  0  0  0  0  0
    8.9046   -3.6590   -0.2841 O   0  5  0  0  0  0  0  0  0  0  0  0
  1  2  1  0  0  0  0
  1 31  1  0  0  0  0
  1 32  1  0  0  0  0
  1 33  1  0  0  0  0
  2  7  2  0  0  0  0
  2  3  1  0  0  0  0
  3  4  2  0  0  0  0
  3 34  1  0  0  0  0
  4  5  1  0  0  0  0
  4 35  1  0  0  0  0
  5  6  2  0  0  0  0
  5 30  1  0  0  0  0
  6  7  1  0  0  0  0
  6  8  1  0  0  0  0
  7 36  1  0  0  0  0
  8 12  1  0  0  0  0
  8  9  2  0  0  0  0
  9 10  1  0  0  0  0
  9 37  1  0  0  0  0
 10 11  1  0  0  0  0
 11 12  2  0  0  0  0
 11 17  1  0  0  0  0
 12 13  1  0  0  0  0
 13 14  2  0  0  0  0
 13 15  1  0  0  0  0
 15 16  1  0  0  0  0
 16 38  1  0  0  0  0
 16 39  1  0  0  0  0
 16 40  1  0  0  0  0
 17 18  1  0  0  0  0
 17 41  1  0  0  0  0
 18 19  2  0  0  0  0
 18 20  1  0  0  0  0
 20 21  1  0  0  0  0
 20 26  1  0  0  0  0
 20 22  1  0  0  0  0
 22 23  1  0  0  0  0
 22 42  1  0  0  0  0
 22 43  1  0  0  0  0
 23 24  2  0  0  0  0
 23 44  1  0  0  0  0
 24 25  1  0  0  0  0
 24 45  1  0  0  0  0
 25 26  1  0  0  0  0
 25 46  1  0  0  0  0
 25 47  1  0  0  0  0
 26 27  1  0  0  0  0
 26 28  1  0  0  0  0
 28 29  2  0  0  0  0
 28 51  1  0  0  0  0
 30 48  1  0  0  0  0
 30 49  1  0  0  0  0
 30 50  1  0  0  0  0
M  CHG  1  51  -1
M  END
$$$$
ZINC03864136
  -OEChem-08230709463D

 57 60  0     1  0  0  0  0  0999 V2000
   -0.9576    3.7483   -5.8764 C   0  0  0  0  0  0  0  0  0  0  0  0
   -0.2715    3.7621   -4.5347 C   0  0  0  0  0  0  0  0  0  0  0  0
    0.1354    2.5728   -3.9565 C   0  0  0  0  0  0  0  0  0  0  0  0
    0.7684    2.5797   -2.7306 C   0  0  0  0  0  0  0  0  0  0  0  0
    0.9894    3.7877   -2.0699 C   0  0  0  0  0  0  0  0  0  0  0  0
    0.5776    4.9828   -2.6576 C   0  0  0  0  0  0  0  0  0  0  0  0
   -0.0507    4.9638   -3.8863 C   0  0  0  0  0  0  0  0  0  0  0  0
   -0.4965    6.2549   -4.5230 C   0  0  0  0  0  0  0  0  0  0  0  0
    1.6652    3.8014   -0.7507 C   0  0  0  0  0  0  0  0  0  0  0  0
    2.8784    4.3852   -0.5781 C   0  0  0  0  0  0  0  0  0  0  0  0
    3.2209    4.1158    1.1483 S   0  0  0  0  0  0  0  0  0  0  0  0
    1.7847    3.2633    1.6032 C   0  0  0  0  0  0  0  0  0  0  0  0
    1.0597    3.1967    0.4208 C   0  0  0  0  0  0  0  0  0  0  0  0
   -0.2477    2.5434    0.3581 C   0  0  0  0  0  0  0  0  0  0  0  0
   -1.2596    3.1871    0.5621 O   0  0  0  0  0  0  0  0  0  0  0  0
   -0.3315    1.2285    0.0686 O   0  0  0  0  0  0  0  0  0  0  0  0
   -1.6612    0.6470    0.0235 C   0  0  0  0  0  0  0  0  0  0  0  0
    1.4406    2.7659    2.8500 N   0  0  0  0  0  0  0  0  0  0  0  0
    2.2780    2.9258    3.8939 C   0  0  0  0  0  0  0  0  0  0  0  0
    3.3327    3.5049    3.7420 O   0  0  0  0  0  0  0  0  0  0  0  0
    1.9038    2.3849    5.2497 C   0  0  2  0  0  0  0  0  0  0  0  0
    0.9849    2.8520    5.6040 H   0  0  0  0  0  0  0  0  0  0  0  0
    3.0624    2.6184    6.2668 C   0  0  1  0  0  0  0  0  0  0  0  0
    3.5521    3.5909    6.2162 H   0  0  0  0  0  0  0  0  0  0  0  0
    2.4273    2.2160    7.6660 C   0  0  0  0  0  0  0  0  0  0  0  0
    2.2769    0.6794    7.5911 C   0  0  0  0  0  0  0  0  0  0  0  0
    2.8141    0.2991    6.1775 C   0  0  2  0  0  0  0  0  0  0  0  0
    3.0975   -0.7444    6.0403 H   0  0  0  0  0  0  0  0  0  0  0  0
    3.9553    1.3591    5.9836 C   0  0  0  0  0  0  0  0  0  0  0  0
    1.7394    0.8490    5.1906 C   0  0  1  0  0  0  0  0  0  0  0  0
    1.9292    0.4851    4.1808 H   0  0  0  0  0  0  0  0  0  0  0  0
    0.3581    0.4507    5.6428 C   0  0  0  0  0  0  0  0  0  0  0  0
   -0.2893    1.1982    6.3370 O   0  0  0  0  0  0  0  0  0  0  0  0
    3.7325    5.0872   -1.6023 C   0  0  0  0  0  0  0  0  0  0  0  0
   -0.2115    3.8294   -6.6669 H   0  0  0  0  0  0  0  0  0  0  0  0
   -1.5099    2.8157   -5.9924 H   0  0  0  0  0  0  0  0  0  0  0  0
   -1.6476    4.5896   -5.9403 H   0  0  0  0  0  0  0  0  0  0  0  0
   -0.0396    1.6376   -4.4674 H   0  0  0  0  0  0  0  0  0  0  0  0
    1.0890    1.6511   -2.2819 H   0  0  0  0  0  0  0  0  0  0  0  0
    0.7501    5.9217   -2.1526 H   0  0  0  0  0  0  0  0  0  0  0  0
    0.3074    6.6504   -5.1438 H   0  0  0  0  0  0  0  0  0  0  0  0
   -1.3756    6.0708   -5.1407 H   0  0  0  0  0  0  0  0  0  0  0  0
   -0.7438    6.9772   -3.7451 H   0  0  0  0  0  0  0  0  0  0  0  0
   -1.5861   -0.4130   -0.2191 H   0  0  0  0  0  0  0  0  0  0  0  0
   -2.1423    0.7644    0.9945 H   0  0  0  0  0  0  0  0  0  0  0  0
   -2.2534    1.1531   -0.7389 H   0  0  0  0  0  0  0  0  0  0  0  0
    0.5971    2.3027    2.9714 H   0  0  0  0  0  0  0  0  0  0  0  0
    1.4535    2.6870    7.8003 H   0  0  0  0  0  0  0  0  0  0  0  0
    3.0979    2.4930    8.4793 H   0  0  0  0  0  0  0  0  0  0  0  0
    1.2292    0.3949    7.6886 H   0  0  0  0  0  0  0  0  0  0  0  0
    2.8752    0.2008    8.3663 H   0  0  0  0  0  0  0  0  0  0  0  0
    4.7484    1.2457    6.7227 H   0  0  0  0  0  0  0  0  0  0  0  0
    4.3473    1.3563    4.9665 H   0  0  0  0  0  0  0  0  0  0  0  0
    4.6513    5.4365   -1.1314 H   0  0  0  0  0  0  0  0  0  0  0  0
    3.9774    4.3944   -2.4074 H   0  0  0  0  0  0  0  0  0  0  0  0
    3.1863    5.9383   -2.0090 H   0  0  0  0  0  0  0  0  0  0  0  0
   -0.1530   -0.7346    5.2744 O   0  5  0  0  0  0  0  0  0  0  0  0
  1  2  1  0  0  0  0
  1 35  1  0  0  0  0
  1 36  1  0  0  0  0
  1 37  1  0  0  0  0
  2  7  2  0  0  0  0
  2  3  1  0  0  0  0
  3  4  2  0  0  0  0
  3 38  1  0  0  0  0
  4  5  1  0  0  0  0
  4 39  1  0  0  0  0
  5  6  2  0  0  0  0
  5  9  1  0  0  0  0
  6  7  1  0  0  0  0
  6 40  1  0  0  0  0
  7  8  1  0  0  0  0
  8 41  1  0  0  0  0
  8 42  1  0  0  0  0
  8 43  1  0  0  0  0
  9 13  1  0  0  0  0
  9 10  2  0  0  0  0
 10 11  1  0  0  0  0
 10 34  1  0  0  0  0
 11 12  1  0  0  0  0
 12 13  2  0  0  0  0
 12 18  1  0  0  0  0
 13 14  1  0  0  0  0
 14 15  2  0  0  0  0
 14 16  1  0  0  0  0
 16 17  1  0  0  0  0
 17 44  1  0  0  0  0
 17 45  1  0  0  0  0
 17 46  1  0  0  0  0
 18 19  1  0  0  0  0
 18 47  1  0  0  0  0
 19 20  2  0  0  0  0
 19 21  1  0  0  0  0
 21 22  1  0  0  0  0
 21 30  1  0  0  0  0
 21 23  1  0  0  0  0
 23 24  1  0  0  0  0
 23 29  1  0  0  0  0
 23 25  1  0  0  0  0
 25 26  1  0  0  0  0
 25 48  1  0  0  0  0
 25 49  1  0  0  0  0
 26 27  1  0  0  0  0
 26 50  1  0  0  0  0
 26 51  1  0  0  0  0
 27 28  1  0  0  0  0
 27 29  1  0  0  0  0
 27 30  1  0  0  0  0
 29 52  1  0  0  0  0
 29 53  1  0  0  0  0
 30 31  1  0  0  0  0
 30 32  1  0  0  0  0
 32 33  2  0  0  0  0
 32 57  1  0  0  0  0
 34 54  1  0  0  0  0
 34 55  1  0  0  0  0
 34 56  1  0  0  0  0
M  CHG  1  57  -1
M  END
$$$$
ZINC03864141
  -OEChem-08230709463D

 52 55  0     1  0  0  0  0  0999 V2000
    5.7333    1.6252    1.1946 C   0  0  0  0  0  0  0  0  0  0  0  0
    4.3016    1.3876    1.2406 O   0  0  0  0  0  0  0  0  0  0  0  0
    3.6621    1.2703    0.0589 C   0  0  0  0  0  0  0  0  0  0  0  0
    4.2849    1.3641   -0.9817 O   0  0  0  0  0  0  0  0  0  0  0  0
    2.2179    1.0299    0.0286 C   0  0  0  0  0  0  0  0  0  0  0  0
    1.2692    2.1501    0.0015 C   0  0  0  0  0  0  0  0  0  0  0  0
   -0.0220    1.7694    0.0118 C   0  0  0  0  0  0  0  0  0  0  0  0
    0.0021   -0.0041    0.0020 S   0  0  0  0  0  0  0  0  0  0  0  0
    1.7138   -0.2576    0.0244 C   0  0  0  0  0  0  0  0  0  0  0  0
    2.4088   -1.4568    0.0348 N   0  0  0  0  0  0  0  0  0  0  0  0
    1.7369   -2.6251    0.0279 C   0  0  0  0  0  0  0  0  0  0  0  0
    0.5242   -2.6272    0.0127 O   0  0  0  0  0  0  0  0  0  0  0  0
    2.4925   -3.9290    0.0392 C   0  0  1  0  0  0  0  0  0  0  0  0
    3.1240   -3.9970    0.9250 H   0  0  0  0  0  0  0  0  0  0  0  0
    1.5043   -5.1369   -0.0248 C   0  0  1  0  0  0  0  0  0  0  0  0
    0.6383   -5.0876    0.6353 H   0  0  0  0  0  0  0  0  0  0  0  0
    1.2345   -5.1957   -1.5770 C   0  0  0  0  0  0  0  0  0  0  0  0
    2.7587   -5.3558   -1.9292 C   0  0  1  0  0  0  0  0  0  0  0  0
    3.0051   -5.4964   -2.9817 H   0  0  0  0  0  0  0  0  0  0  0  0
    3.3415   -4.0772   -1.2471 C   0  0  2  0  0  0  0  0  0  0  0  0
    3.2152   -3.2075   -1.8920 H   0  0  0  0  0  0  0  0  0  0  0  0
    4.7950   -4.2763   -0.9026 C   0  0  0  0  0  0  0  0  0  0  0  0
    5.1438   -4.3011    0.2540 O   0  0  0  0  0  0  0  0  0  0  0  0
    3.1498   -6.4957   -0.9808 C   0  0  0  0  0  0  0  0  0  0  0  0
    2.4402   -6.3806    0.1238 C   0  0  0  0  0  0  0  0  0  0  0  0
   -1.2480    2.6354    0.0814 C   0  0  0  0  0  0  0  0  0  0  0  0
   -1.4155    3.0769    1.5466 C   0  0  0  0  0  0  0  0  0  0  0  0
   -0.1055    3.7276    2.0030 C   0  0  0  0  0  0  0  0  0  0  0  0
    0.0783    4.9353    1.1067 C   0  0  0  0  0  0  0  0  0  0  0  0
    0.7130    4.6130   -0.2342 C   0  0  0  0  0  0  0  0  0  0  0  0
    1.8170    3.5712   -0.1093 C   0  0  0  0  0  0  0  0  0  0  0  0
    5.9303    2.5552    0.6613 H   0  0  0  0  0  0  0  0  0  0  0  0
    6.1221    1.6993    2.2102 H   0  0  0  0  0  0  0  0  0  0  0  0
    6.2222    0.7994    0.6778 H   0  0  0  0  0  0  0  0  0  0  0  0
    3.3787   -1.4552    0.0469 H   0  0  0  0  0  0  0  0  0  0  0  0
    0.8120   -4.2678   -1.9627 H   0  0  0  0  0  0  0  0  0  0  0  0
    0.6456   -6.0664   -1.8654 H   0  0  0  0  0  0  0  0  0  0  0  0
    3.8826   -7.2627   -1.1836 H   0  0  0  0  0  0  0  0  0  0  0  0
    2.4928   -7.0373    0.9796 H   0  0  0  0  0  0  0  0  0  0  0  0
   -1.1210    3.5097   -0.5570 H   0  0  0  0  0  0  0  0  0  0  0  0
   -2.1219    2.0669   -0.2367 H   0  0  0  0  0  0  0  0  0  0  0  0
   -1.6317    2.2091    2.1697 H   0  0  0  0  0  0  0  0  0  0  0  0
   -2.2301    3.7970    1.6235 H   0  0  0  0  0  0  0  0  0  0  0  0
    0.7250    3.0333    1.8755 H   0  0  0  0  0  0  0  0  0  0  0  0
   -0.1795    4.0389    3.0450 H   0  0  0  0  0  0  0  0  0  0  0  0
    0.7070    5.6600    1.6239 H   0  0  0  0  0  0  0  0  0  0  0  0
   -0.8970    5.3889    0.9298 H   0  0  0  0  0  0  0  0  0  0  0  0
    1.1337    5.5260   -0.6555 H   0  0  0  0  0  0  0  0  0  0  0  0
   -0.0565    4.2346   -0.9071 H   0  0  0  0  0  0  0  0  0  0  0  0
    2.4102    3.7907    0.7784 H   0  0  0  0  0  0  0  0  0  0  0  0
    2.4601    3.6339   -0.9871 H   0  0  0  0  0  0  0  0  0  0  0  0
    5.7021   -4.4262   -1.8805 O   0  5  0  0  0  0  0  0  0  0  0  0
  1  2  1  0  0  0  0
  1 32  1  0  0  0  0
  1 33  1  0  0  0  0
  1 34  1  0  0  0  0
  2  3  1  0  0  0  0
  3  4  2  0  0  0  0
  3  5  1  0  0  0  0
  5  9  2  0  0  0  0
  5  6  1  0  0  0  0
  6 31  1  0  0  0  0
  6  7  2  0  0  0  0
  7  8  1  0  0  0  0
  7 26  1  0  0  0  0
  8  9  1  0  0  0  0
  9 10  1  0  0  0  0
 10 11  1  0  0  0  0
 10 35  1  0  0  0  0
 11 12  2  0  0  0  0
 11 13  1  0  0  0  0
 13 14  1  0  0  0  0
 13 20  1  0  0  0  0
 13 15  1  0  0  0  0
 15 16  1  0  0  0  0
 15 25  1  0  0  0  0
 15 17  1  0  0  0  0
 17 18  1  0  0  0  0
 17 36  1  0  0  0  0
 17 37  1  0  0  0  0
 18 19  1  0  0  0  0
 18 20  1  0  0  0  0
 18 24  1  0  0  0  0
 20 21  1  0  0  0  0
 20 22  1  0  0  0  0
 22 23  2  0  0  0  0
 22 52  1  0  0  0  0
 24 25  2  0  0  0  0
 24 38  1  0  0  0  0
 25 39  1  0  0  0  0
 26 27  1  0  0  0  0
 26 40  1  0  0  0  0
 26 41  1  0  0  0  0
 27 28  1  0  0  0  0
 27 42  1  0  0  0  0
 27 43  1  0  0  0  0
 28 29  1  0  0  0  0
 28 44  1  0  0  0  0
 28 45  1  0  0  0  0
 29 30  1  0  0  0  0
 29 46  1  0  0  0  0
 29 47  1  0  0  0  0
 30 31  1  0  0  0  0
 30 48  1  0  0  0  0
 30 49  1  0  0  0  0
 31 50  1  0  0  0  0
 31 51  1  0  0  0  0
M  CHG  1  52  -1
M  END
$$$$
ZINC03864149
  -OEChem-08230709463D

 47 48  0     0  0  0  0  0  0999 V2000
   -4.0270    3.4501    2.2556 C   0  0  0  0  0  0  0  0  0  0  0  0
   -3.1307    2.9523    1.1512 C   0  0  0  0  0  0  0  0  0  0  0  0
   -1.9493    2.2912    1.2585 C   0  0  0  0  0  0  0  0  0  0  0  0
   -1.2912    1.9265    0.0186 C   0  0  0  0  0  0  0  0  0  0  0  0
   -1.9301    2.2938   -1.1593 C   0  0  0  0  0  0  0  0  0  0  0  0
   -3.3658    3.0887   -0.6084 S   0  0  0  0  0  0  0  0  0  0  0  0
   -1.5183    2.0745   -2.4614 N   0  0  0  0  0  0  0  0  0  0  0  0
   -2.2753    2.5066   -3.4894 C   0  0  0  0  0  0  0  0  0  0  0  0
   -3.3198    3.0891   -3.2722 O   0  0  0  0  0  0  0  0  0  0  0  0
   -1.8360    2.2727   -4.8785 C   0  0  0  0  0  0  0  0  0  0  0  0
   -2.5906    2.7034   -5.9032 C   0  0  0  0  0  0  0  0  0  0  0  0
   -2.1516    2.4696   -7.2913 C   0  0  0  0  0  0  0  0  0  0  0  0
   -1.1079    1.8876   -7.5084 O   0  0  0  0  0  0  0  0  0  0  0  0
   -0.0144    1.2123    0.0087 C   0  0  0  0  0  0  0  0  0  0  0  0
    0.0021   -0.0041    0.0020 O   0  0  0  0  0  0  0  0  0  0  0  0
    1.1445    1.9026    0.0013 O   0  0  0  0  0  0  0  0  0  0  0  0
    2.3728    1.1285   -0.0145 C   0  0  0  0  0  0  0  0  0  0  0  0
   -1.3611    1.9591    2.5779 C   0  0  0  0  0  0  0  0  0  0  0  0
   -1.2257    0.6276    2.9686 C   0  0  0  0  0  0  0  0  0  0  0  0
   -0.6730    0.3244    4.1961 C   0  0  0  0  0  0  0  0  0  0  0  0
   -0.2633    1.3388    5.0428 C   0  0  0  0  0  0  0  0  0  0  0  0
   -0.4000    2.6619    4.6628 C   0  0  0  0  0  0  0  0  0  0  0  0
   -0.9464    2.9772    3.4355 C   0  0  0  0  0  0  0  0  0  0  0  0
    0.3346    1.0012    6.3843 C   0  0  0  0  0  0  0  0  0  0  0  0
   -0.6830    0.2145    7.2128 C   0  0  0  0  0  0  0  0  0  0  0  0
    1.5926    0.1539    6.1832 C   0  0  0  0  0  0  0  0  0  0  0  0
   -3.7415    4.4671    2.5247 H   0  0  0  0  0  0  0  0  0  0  0  0
   -5.0624    3.4416    1.9149 H   0  0  0  0  0  0  0  0  0  0  0  0
   -3.9256    2.8019    3.1260 H   0  0  0  0  0  0  0  0  0  0  0  0
   -0.6847    1.6097   -2.6348 H   0  0  0  0  0  0  0  0  0  0  0  0
   -0.9079    1.7551   -5.0714 H   0  0  0  0  0  0  0  0  0  0  0  0
   -3.5187    3.2210   -5.7102 H   0  0  0  0  0  0  0  0  0  0  0  0
    2.4147    0.4953    0.8717 H   0  0  0  0  0  0  0  0  0  0  0  0
    2.3977    0.5048   -0.9082 H   0  0  0  0  0  0  0  0  0  0  0  0
    3.2281    1.8042   -0.0191 H   0  0  0  0  0  0  0  0  0  0  0  0
   -1.5493   -0.1651    2.3102 H   0  0  0  0  0  0  0  0  0  0  0  0
   -0.5635   -0.7068    4.4980 H   0  0  0  0  0  0  0  0  0  0  0  0
   -0.0788    3.4497    5.3281 H   0  0  0  0  0  0  0  0  0  0  0  0
   -1.0530    4.0105    3.1400 H   0  0  0  0  0  0  0  0  0  0  0  0
    0.5959    1.9210    6.9075 H   0  0  0  0  0  0  0  0  0  0  0  0
   -0.9443   -0.7053    6.6896 H   0  0  0  0  0  0  0  0  0  0  0  0
   -0.2505   -0.0297    8.1831 H   0  0  0  0  0  0  0  0  0  0  0  0
   -1.5792    0.8182    7.3561 H   0  0  0  0  0  0  0  0  0  0  0  0
    2.3176    0.7143    5.5929 H   0  0  0  0  0  0  0  0  0  0  0  0
    2.0252   -0.0903    7.1534 H   0  0  0  0  0  0  0  0  0  0  0  0
    1.3314   -0.7660    5.6599 H   0  0  0  0  0  0  0  0  0  0  0  0
   -2.9085    2.9017   -8.3192 O   0  5  0  0  0  0  0  0  0  0  0  0
  1  2  1  0  0  0  0
  1 27  1  0  0  0  0
  1 28  1  0  0  0  0
  1 29  1  0  0  0  0
  2  6  1  0  0  0  0
  2  3  2  0  0  0  0
  3  4  1  0  0  0  0
  3 18  1  0  0  0  0
  4  5  2  0  0  0  0
  4 14  1  0  0  0  0
  5  6  1  0  0  0  0
  5  7  1  0  0  0  0
  7  8  1  0  0  0  0
  7 30  1  0  0  0  0
  8  9  2  0  0  0  0
  8 10  1  0  0  0  0
 10 11  2  0  0  0  0
 10 31  1  0  0  0  0
 11 12  1  0  0  0  0
 11 32  1  0  0  0  0
 12 13  2  0  0  0  0
 12 47  1  0  0  0  0
 14 15  2  0  0  0  0
 14 16  1  0  0  0  0
 16 17  1  0  0  0  0
 17 33  1  0  0  0  0
 17 34  1  0  0  0  0
 17 35  1  0  0  0  0
 18 23  2  0  0  0  0
 18 19  1  0  0  0  0
 19 20  2  0  0  0  0
 19 36  1  0  0  0  0
 20 21  1  0  0  0  0
 20 37  1  0  0  0  0
 21 22  2  0  0  0  0
 21 24  1  0  0  0  0
 22 23  1  0  0  0  0
 22 38  1  0  0  0  0
 23 39  1  0  0  0  0
 24 25  1  0  0  0  0
 24 26  1  0  0  0  0
 24 40  1  0  0  0  0
 25 41  1  0  0  0  0
 25 42  1  0  0  0  0
 25 43  1  0  0  0  0
 26 44  1  0  0  0  0
 26 45  1  0  0  0  0
 26 46  1  0  0  0  0
M  CHG  1  47  -1
M  END
$$$$
ZINC03864185
  -OEChem-08230709463D

 49 50  0     0  0  0  0  0  0999 V2000
  -11.1654    1.0429    0.3136 C   0  0  0  0  0  0  0  0  0  0  0  0
  -10.2842    2.2687    0.0653 C   0  0  0  0  0  0  0  0  0  0  0  0
  -10.5125    3.2946    1.1772 C   0  0  0  0  0  0  0  0  0  0  0  0
  -10.6452    2.8913   -1.2849 C   0  0  0  0  0  0  0  0  0  0  0  0
   -8.8359    1.8525    0.0553 C   0  0  0  0  0  0  0  0  0  0  0  0
   -8.3915    0.9263   -0.8711 C   0  0  0  0  0  0  0  0  0  0  0  0
   -7.0665    0.5410   -0.8847 C   0  0  0  0  0  0  0  0  0  0  0  0
   -6.1751    1.0872    0.0377 C   0  0  0  0  0  0  0  0  0  0  0  0
   -6.6299    2.0160    0.9728 C   0  0  0  0  0  0  0  0  0  0  0  0
   -7.9560    2.3979    0.9730 C   0  0  0  0  0  0  0  0  0  0  0  0
   -4.7506    0.6775    0.0283 C   0  0  0  0  0  0  0  0  0  0  0  0
   -4.3857   -0.6300    0.0194 C   0  0  0  0  0  0  0  0  0  0  0  0
   -2.6067   -0.5587    0.0038 S   0  0  0  0  0  0  0  0  0  0  0  0
   -2.3811    1.1574    0.0196 C   0  0  0  0  0  0  0  0  0  0  0  0
   -3.6778    1.6541    0.0285 C   0  0  0  0  0  0  0  0  0  0  0  0
   -3.9488    3.0916    0.0380 C   0  0  0  0  0  0  0  0  0  0  0  0
   -4.0668    3.6953   -1.0115 O   0  0  0  0  0  0  0  0  0  0  0  0
   -4.0679    3.7478    1.2107 O   0  0  0  0  0  0  0  0  0  0  0  0
   -4.3369    5.1731    1.1442 C   0  0  0  0  0  0  0  0  0  0  0  0
   -1.1906    1.8665    0.0178 N   0  0  0  0  0  0  0  0  0  0  0  0
   -0.0144    1.2086    0.0087 C   0  0  0  0  0  0  0  0  0  0  0  0
    0.0021   -0.0041    0.0020 O   0  0  0  0  0  0  0  0  0  0  0  0
    1.2803    1.9798    0.0005 C   0  0  0  0  0  0  0  0  0  0  0  0
    2.4566    1.0015   -0.0160 C   0  0  0  0  0  0  0  0  0  0  0  0
    3.7513    1.7727   -0.0242 C   0  0  0  0  0  0  0  0  0  0  0  0
    3.7349    2.9808   -0.0176 O   0  0  0  0  0  0  0  0  0  0  0  0
  -10.9083    0.5993    1.2755 H   0  0  0  0  0  0  0  0  0  0  0  0
  -12.2130    1.3439    0.3207 H   0  0  0  0  0  0  0  0  0  0  0  0
  -11.0028    0.3120   -0.4786 H   0  0  0  0  0  0  0  0  0  0  0  0
   -9.8847    4.1679    1.0003 H   0  0  0  0  0  0  0  0  0  0  0  0
  -11.5601    3.5956    1.1844 H   0  0  0  0  0  0  0  0  0  0  0  0
  -10.2553    2.8511    2.1391 H   0  0  0  0  0  0  0  0  0  0  0  0
  -10.4826    2.1604   -2.0771 H   0  0  0  0  0  0  0  0  0  0  0  0
  -11.6928    3.1923   -1.2778 H   0  0  0  0  0  0  0  0  0  0  0  0
  -10.0174    3.7646   -1.4618 H   0  0  0  0  0  0  0  0  0  0  0  0
   -9.0830    0.5036   -1.5849 H   0  0  0  0  0  0  0  0  0  0  0  0
   -6.7208   -0.1825   -1.6082 H   0  0  0  0  0  0  0  0  0  0  0  0
   -5.9450    2.4388    1.6928 H   0  0  0  0  0  0  0  0  0  0  0  0
   -8.3085    3.1209    1.6938 H   0  0  0  0  0  0  0  0  0  0  0  0
   -5.0214   -1.5030    0.0177 H   0  0  0  0  0  0  0  0  0  0  0  0
   -5.2764    5.3413    0.6177 H   0  0  0  0  0  0  0  0  0  0  0  0
   -4.4091    5.5767    2.1541 H   0  0  0  0  0  0  0  0  0  0  0  0
   -3.5273    5.6711    0.6108 H   0  0  0  0  0  0  0  0  0  0  0  0
   -1.2037    2.8364    0.0232 H   0  0  0  0  0  0  0  0  0  0  0  0
    1.3211    2.6119   -0.8866 H   0  0  0  0  0  0  0  0  0  0  0  0
    1.3381    2.6024    0.8933 H   0  0  0  0  0  0  0  0  0  0  0  0
    2.4158    0.3693    0.8710 H   0  0  0  0  0  0  0  0  0  0  0  0
    2.3988    0.3789   -0.9088 H   0  0  0  0  0  0  0  0  0  0  0  0
    4.9227    1.1174   -0.0389 O   0  5  0  0  0  0  0  0  0  0  0  0
  1  2  1  0  0  0  0
  1 27  1  0  0  0  0
  1 28  1  0  0  0  0
  1 29  1  0  0  0  0
  2  3  1  0  0  0  0
  2  4  1  0  0  0  0
  2  5  1  0  0  0  0
  3 30  1  0  0  0  0
  3 31  1  0  0  0  0
  3 32  1  0  0  0  0
  4 33  1  0  0  0  0
  4 34  1  0  0  0  0
  4 35  1  0  0  0  0
  5 10  2  0  0  0  0
  5  6  1  0  0  0  0
  6  7  2  0  0  0  0
  6 36  1  0  0  0  0
  7  8  1  0  0  0  0
  7 37  1  0  0  0  0
  8  9  2  0  0  0  0
  8 11  1  0  0  0  0
  9 10  1  0  0  0  0
  9 38  1  0  0  0  0
 10 39  1  0  0  0  0
 11 15  1  0  0  0  0
 11 12  2  0  0  0  0
 12 13  1  0  0  0  0
 12 40  1  0  0  0  0
 13 14  1  0  0  0  0
 14 15  2  0  0  0  0
 14 20  1  0  0  0  0
 15 16  1  0  0  0  0
 16 17  2  0  0  0  0
 16 18  1  0  0  0  0
 18 19  1  0  0  0  0
 19 41  1  0  0  0  0
 19 42  1  0  0  0  0
 19 43  1  0  0  0  0
 20 21  1  0  0  0  0
 20 44  1  0  0  0  0
 21 22  2  0  0  0  0
 21 23  1  0  0  0  0
 23 24  1  0  0  0  0
 23 45  1  0  0  0  0
 23 46  1  0  0  0  0
 24 25  1  0  0  0  0
 24 47  1  0  0  0  0
 24 48  1  0  0  0  0
 25 26  2  0  0  0  0
 25 49  1  0  0  0  0
M  CHG  1  49  -1
M  END
$$$$
ZINC03864225
  -OEChem-08230709463D

 54 56  0     1  0  0  0  0  0999 V2000
   -0.3964   -4.7463   -4.8576 C   0  0  0  0  0  0  0  0  0  0  0  0
   -0.8450   -4.6031   -3.4019 C   0  0  0  0  0  0  0  0  0  0  0  0
   -1.9347   -3.6468   -3.3231 O   0  0  0  0  0  0  0  0  0  0  0  0
   -2.4492   -3.4040   -2.0999 C   0  0  0  0  0  0  0  0  0  0  0  0
   -1.9984   -3.9766   -1.1258 O   0  0  0  0  0  0  0  0  0  0  0  0
   -3.5491   -2.4520   -1.9448 C   0  0  0  0  0  0  0  0  0  0  0  0
   -4.9355   -2.8715   -2.0251 C   0  0  0  0  0  0  0  0  0  0  0  0
   -5.8757   -1.9054   -1.8661 C   0  0  0  0  0  0  0  0  0  0  0  0
   -4.9097   -0.4332   -1.6021 S   0  0  0  0  0  0  0  0  0  0  0  0
   -3.3173   -1.1027   -1.7131 C   0  0  0  0  0  0  0  0  0  0  0  0
   -2.1013   -0.4490   -1.5932 N   0  0  0  0  0  0  0  0  0  0  0  0
   -2.0697    0.8791   -1.3665 C   0  0  0  0  0  0  0  0  0  0  0  0
   -3.1054    1.5022   -1.2673 O   0  0  0  0  0  0  0  0  0  0  0  0
   -0.7473    1.5900   -1.2361 C   0  0  2  0  0  0  0  0  0  0  0  0
    0.0316    0.8711   -0.9818 H   0  0  0  0  0  0  0  0  0  0  0  0
   -0.8415    2.6551   -0.1415 C   0  0  0  0  0  0  0  0  0  0  0  0
   -1.7195    3.7838   -0.5966 C   0  0  0  0  0  0  0  0  0  0  0  0
   -2.0414    4.0029   -1.8291 C   0  0  0  0  0  0  0  0  0  0  0  0
   -1.5939    3.1479   -2.9784 C   0  0  0  0  0  0  0  0  0  0  0  0
   -0.4022    2.2839   -2.5599 C   0  0  2  0  0  0  0  0  0  0  0  0
    0.4774    2.9134   -2.4252 H   0  0  0  0  0  0  0  0  0  0  0  0
   -0.1260    1.2473   -3.6183 C   0  0  0  0  0  0  0  0  0  0  0  0
   -0.1967    0.0723   -3.3461 O   0  0  0  0  0  0  0  0  0  0  0  0
   -5.3072   -4.2857   -2.2682 C   0  0  0  0  0  0  0  0  0  0  0  0
   -4.7264   -4.9908   -3.3218 C   0  0  0  0  0  0  0  0  0  0  0  0
   -5.0763   -6.3069   -3.5433 C   0  0  0  0  0  0  0  0  0  0  0  0
   -6.0014   -6.9272   -2.7225 C   0  0  0  0  0  0  0  0  0  0  0  0
   -6.5808   -6.2329   -1.6759 C   0  0  0  0  0  0  0  0  0  0  0  0
   -6.2344   -4.9177   -1.4411 C   0  0  0  0  0  0  0  0  0  0  0  0
   -7.5877   -6.9157   -0.7865 C   0  0  0  0  0  0  0  0  0  0  0  0
   -6.3790   -8.3651   -2.9695 C   0  0  0  0  0  0  0  0  0  0  0  0
   -0.0589   -3.7793   -5.2306 H   0  0  0  0  0  0  0  0  0  0  0  0
    0.4216   -5.4642   -4.9168 H   0  0  0  0  0  0  0  0  0  0  0  0
   -1.2324   -5.0975   -5.4625 H   0  0  0  0  0  0  0  0  0  0  0  0
   -0.0090   -4.2519   -2.7970 H   0  0  0  0  0  0  0  0  0  0  0  0
   -1.1824   -5.5701   -3.0289 H   0  0  0  0  0  0  0  0  0  0  0  0
   -6.9507   -2.0062   -1.8900 H   0  0  0  0  0  0  0  0  0  0  0  0
   -1.2729   -0.9474   -1.6725 H   0  0  0  0  0  0  0  0  0  0  0  0
   -1.2630    2.2104    0.7600 H   0  0  0  0  0  0  0  0  0  0  0  0
    0.1553    3.0382    0.0767 H   0  0  0  0  0  0  0  0  0  0  0  0
   -2.1063    4.4584    0.1528 H   0  0  0  0  0  0  0  0  0  0  0  0
   -2.6725    4.8522   -2.0455 H   0  0  0  0  0  0  0  0  0  0  0  0
   -1.3019    3.7868   -3.8118 H   0  0  0  0  0  0  0  0  0  0  0  0
   -2.4164    2.5032   -3.2883 H   0  0  0  0  0  0  0  0  0  0  0  0
   -4.0044   -4.5075   -3.9634 H   0  0  0  0  0  0  0  0  0  0  0  0
   -4.6269   -6.8541   -4.3588 H   0  0  0  0  0  0  0  0  0  0  0  0
   -6.6838   -4.3780   -0.6206 H   0  0  0  0  0  0  0  0  0  0  0  0
   -7.0725   -7.3866    0.0507 H   0  0  0  0  0  0  0  0  0  0  0  0
   -8.2971   -6.1794   -0.4088 H   0  0  0  0  0  0  0  0  0  0  0  0
   -8.1216   -7.6749   -1.3580 H   0  0  0  0  0  0  0  0  0  0  0  0
   -5.7121   -9.0177   -2.4061 H   0  0  0  0  0  0  0  0  0  0  0  0
   -7.4071   -8.5312   -2.6479 H   0  0  0  0  0  0  0  0  0  0  0  0
   -6.2907   -8.5863   -4.0332 H   0  0  0  0  0  0  0  0  0  0  0  0
    0.1987    1.6295   -4.8634 O   0  5  0  0  0  0  0  0  0  0  0  0
  1  2  1  0  0  0  0
  1 32  1  0  0  0  0
  1 33  1  0  0  0  0
  1 34  1  0  0  0  0
  2  3  1  0  0  0  0
  2 35  1  0  0  0  0
  2 36  1  0  0  0  0
  3  4  1  0  0  0  0
  4  5  2  0  0  0  0
  4  6  1  0  0  0  0
  6 10  2  0  0  0  0
  6  7  1  0  0  0  0
  7  8  2  0  0  0  0
  7 24  1  0  0  0  0
  8  9  1  0  0  0  0
  8 37  1  0  0  0  0
  9 10  1  0  0  0  0
 10 11  1  0  0  0  0
 11 12  1  0  0  0  0
 11 38  1  0  0  0  0
 12 13  2  0  0  0  0
 12 14  1  0  0  0  0
 14 15  1  0  0  0  0
 14 20  1  0  0  0  0
 14 16  1  0  0  0  0
 16 17  1  0  0  0  0
 16 39  1  0  0  0  0
 16 40  1  0  0  0  0
 17 18  2  0  0  0  0
 17 41  1  0  0  0  0
 18 19  1  0  0  0  0
 18 42  1  0  0  0  0
 19 20  1  0  0  0  0
 19 43  1  0  0  0  0
 19 44  1  0  0  0  0
 20 21  1  0  0  0  0
 20 22  1  0  0  0  0
 22 23  2  0  0  0  0
 22 54  1  0  0  0  0
 24 29  2  0  0  0  0
 24 25  1  0  0  0  0
 25 26  2  0  0  0  0
 25 45  1  0  0  0  0
 26 27  1  0  0  0  0
 26 46  1  0  0  0  0
 27 28  2  0  0  0  0
 27 31  1  0  0  0  0
 28 29  1  0  0  0  0
 28 30  1  0  0  0  0
 29 47  1  0  0  0  0
 30 48  1  0  0  0  0
 30 49  1  0  0  0  0
 30 50  1  0  0  0  0
 31 51  1  0  0  0  0
 31 52  1  0  0  0  0
 31 53  1  0  0  0  0
M  CHG  1  54  -1
M  END
$$$$
ZINC03864233
  -OEChem-08230709463D

 53 55  0     1  0  0  0  0  0999 V2000
    7.0800   -7.5331   -6.3157 C   0  0  0  0  0  0  0  0  0  0  0  0
    6.2180   -6.4203   -5.7775 C   0  0  0  0  0  0  0  0  0  0  0  0
    6.1130   -5.2308   -6.4761 C   0  0  0  0  0  0  0  0  0  0  0  0
    5.3256   -4.2081   -5.9879 C   0  0  0  0  0  0  0  0  0  0  0  0
    4.6352   -4.3753   -4.7883 C   0  0  0  0  0  0  0  0  0  0  0  0
    4.7495   -5.5742   -4.0858 C   0  0  0  0  0  0  0  0  0  0  0  0
    5.5353   -6.5920   -4.5867 C   0  0  0  0  0  0  0  0  0  0  0  0
    3.7878   -3.2805   -4.2587 C   0  0  0  0  0  0  0  0  0  0  0  0
    2.6765   -2.8593   -4.9146 C   0  0  0  0  0  0  0  0  0  0  0  0
    2.0512   -1.5607   -3.8692 S   0  0  0  0  0  0  0  0  0  0  0  0
    3.2413   -1.5961   -2.6128 C   0  0  0  0  0  0  0  0  0  0  0  0
    4.1084   -2.6028   -3.0167 C   0  0  0  0  0  0  0  0  0  0  0  0
    5.2851   -2.9648   -2.2266 C   0  0  0  0  0  0  0  0  0  0  0  0
    5.2009   -3.8224   -1.3679 O   0  0  0  0  0  0  0  0  0  0  0  0
    6.4636   -2.3475   -2.4502 O   0  0  0  0  0  0  0  0  0  0  0  0
    7.5886   -2.7573   -1.6288 C   0  0  0  0  0  0  0  0  0  0  0  0
    3.3147   -0.8046   -1.4777 N   0  0  0  0  0  0  0  0  0  0  0  0
    2.3768    0.1362   -1.2504 C   0  0  0  0  0  0  0  0  0  0  0  0
    1.4686    0.2900   -2.0393 O   0  0  0  0  0  0  0  0  0  0  0  0
    2.4566    0.9969   -0.0160 C   0  0  1  0  0  0  0  0  0  0  0  0
    2.4159    0.3648    0.8710 H   0  0  0  0  0  0  0  0  0  0  0  0
    3.7711    1.7799   -0.0244 C   0  0  0  0  0  0  0  0  0  0  0  0
    3.8521    2.6538    1.2288 C   0  0  0  0  0  0  0  0  0  0  0  0
    2.6759    3.6321    1.2453 C   0  0  0  0  0  0  0  0  0  0  0  0
    1.3614    2.8492    1.2537 C   0  0  0  0  0  0  0  0  0  0  0  0
    1.2804    1.9752    0.0004 C   0  0  2  0  0  0  0  0  0  0  0  0
    1.3211    2.6074   -0.8866 H   0  0  0  0  0  0  0  0  0  0  0  0
   -0.0143    1.2041    0.0087 C   0  0  0  0  0  0  0  0  0  0  0  0
    0.0021   -0.0041    0.0020 O   0  0  0  0  0  0  0  0  0  0  0  0
    2.1084   -3.3687   -6.2142 C   0  0  0  0  0  0  0  0  0  0  0  0
    8.0936   -7.4271   -5.9291 H   0  0  0  0  0  0  0  0  0  0  0  0
    6.6704   -8.4936   -6.0029 H   0  0  0  0  0  0  0  0  0  0  0  0
    7.0993   -7.4837   -7.4044 H   0  0  0  0  0  0  0  0  0  0  0  0
    6.6486   -5.1023   -7.4051 H   0  0  0  0  0  0  0  0  0  0  0  0
    5.2447   -3.2798   -6.5340 H   0  0  0  0  0  0  0  0  0  0  0  0
    4.2205   -5.7077   -3.1537 H   0  0  0  0  0  0  0  0  0  0  0  0
    5.6211   -7.5228   -4.0456 H   0  0  0  0  0  0  0  0  0  0  0  0
    8.4720   -2.1843   -1.9106 H   0  0  0  0  0  0  0  0  0  0  0  0
    7.3574   -2.5757   -0.5792 H   0  0  0  0  0  0  0  0  0  0  0  0
    7.7810   -3.8195   -1.7800 H   0  0  0  0  0  0  0  0  0  0  0  0
    4.0412   -0.9277   -0.8468 H   0  0  0  0  0  0  0  0  0  0  0  0
    4.6091    1.0829   -0.0361 H   0  0  0  0  0  0  0  0  0  0  0  0
    3.8118    2.4121   -0.9114 H   0  0  0  0  0  0  0  0  0  0  0  0
    3.8114    2.0217    2.1159 H   0  0  0  0  0  0  0  0  0  0  0  0
    4.7886    3.2116    1.2229 H   0  0  0  0  0  0  0  0  0  0  0  0
    2.7336    4.2547    2.1382 H   0  0  0  0  0  0  0  0  0  0  0  0
    2.7166    4.2643    0.3583 H   0  0  0  0  0  0  0  0  0  0  0  0
    0.5235    3.5461    1.2654 H   0  0  0  0  0  0  0  0  0  0  0  0
    1.3207    2.2170    2.1407 H   0  0  0  0  0  0  0  0  0  0  0  0
    1.2049   -2.8104   -6.4594 H   0  0  0  0  0  0  0  0  0  0  0  0
    2.8434   -3.2375   -7.0083 H   0  0  0  0  0  0  0  0  0  0  0  0
    1.8658   -4.4268   -6.1148 H   0  0  0  0  0  0  0  0  0  0  0  0
   -1.1857    1.8593    0.0178 O   0  5  0  0  0  0  0  0  0  0  0  0
  1  2  1  0  0  0  0
  1 31  1  0  0  0  0
  1 32  1  0  0  0  0
  1 33  1  0  0  0  0
  2  7  2  0  0  0  0
  2  3  1  0  0  0  0
  3  4  2  0  0  0  0
  3 34  1  0  0  0  0
  4  5  1  0  0  0  0
  4 35  1  0  0  0  0
  5  6  2  0  0  0  0
  5  8  1  0  0  0  0
  6  7  1  0  0  0  0
  6 36  1  0  0  0  0
  7 37  1  0  0  0  0
  8 12  1  0  0  0  0
  8  9  2  0  0  0  0
  9 10  1  0  0  0  0
  9 30  1  0  0  0  0
 10 11  1  0  0  0  0
 11 12  2  0  0  0  0
 11 17  1  0  0  0  0
 12 13  1  0  0  0  0
 13 14  2  0  0  0  0
 13 15  1  0  0  0  0
 15 16  1  0  0  0  0
 16 38  1  0  0  0  0
 16 39  1  0  0  0  0
 16 40  1  0  0  0  0
 17 18  1  0  0  0  0
 17 41  1  0  0  0  0
 18 19  2  0  0  0  0
 18 20  1  0  0  0  0
 20 21  1  0  0  0  0
 20 26  1  0  0  0  0
 20 22  1  0  0  0  0
 22 23  1  0  0  0  0
 22 42  1  0  0  0  0
 22 43  1  0  0  0  0
 23 24  1  0  0  0  0
 23 44  1  0  0  0  0
 23 45  1  0  0  0  0
 24 25  1  0  0  0  0
 24 46  1  0  0  0  0
 24 47  1  0  0  0  0
 25 26  1  0  0  0  0
 25 48  1  0  0  0  0
 25 49  1  0  0  0  0
 26 27  1  0  0  0  0
 26 28  1  0  0  0  0
 28 29  2  0  0  0  0
 28 53  1  0  0  0  0
 30 50  1  0  0  0  0
 30 51  1  0  0  0  0
 30 52  1  0  0  0  0
M  CHG  1  53  -1
M  END
$$$$
ZINC03864240
  -OEChem-08230709463D

 57 59  0     1  0  0  0  0  0999 V2000
    0.2250    1.8389    1.3987 C   0  0  0  0  0  0  0  0  0  0  0  0
   -0.7899    2.2426    2.4700 C   0  0  0  0  0  0  0  0  0  0  0  0
   -2.0581    1.5860    2.2074 O   0  0  0  0  0  0  0  0  0  0  0  0
   -3.0675    1.8376    3.0661 C   0  0  0  0  0  0  0  0  0  0  0  0
   -2.8917    2.5860    4.0090 O   0  0  0  0  0  0  0  0  0  0  0  0
   -4.3736    1.2106    2.8636 C   0  0  0  0  0  0  0  0  0  0  0  0
   -4.6987   -0.0764    3.4487 C   0  0  0  0  0  0  0  0  0  0  0  0
   -5.9415   -0.5630    3.2010 C   0  0  0  0  0  0  0  0  0  0  0  0
   -6.6756    0.6920    2.1733 S   0  0  0  0  0  0  0  0  0  0  0  0
   -5.3609    1.8155    2.0971 C   0  0  0  0  0  0  0  0  0  0  0  0
   -5.3069    3.0292    1.4307 N   0  0  0  0  0  0  0  0  0  0  0  0
   -6.3735    3.4607    0.7288 C   0  0  0  0  0  0  0  0  0  0  0  0
   -7.3806    2.7867    0.6805 O   0  0  0  0  0  0  0  0  0  0  0  0
   -6.3147    4.7807    0.0040 C   0  0  2  0  0  0  0  0  0  0  0  0
   -5.5289    5.4008    0.4354 H   0  0  0  0  0  0  0  0  0  0  0  0
   -7.6615    5.4963    0.1286 C   0  0  0  0  0  0  0  0  0  0  0  0
   -8.7027    4.7833   -0.6834 C   0  0  0  0  0  0  0  0  0  0  0  0
   -8.4341    3.9288   -1.6179 C   0  0  0  0  0  0  0  0  0  0  0  0
   -7.0441    3.5240   -2.0128 C   0  0  0  0  0  0  0  0  0  0  0  0
   -6.0290    4.5397   -1.4837 C   0  0  2  0  0  0  0  0  0  0  0  0
   -6.1277    5.4765   -2.0321 H   0  0  0  0  0  0  0  0  0  0  0  0
   -4.6338    3.9951   -1.6499 C   0  0  0  0  0  0  0  0  0  0  0  0
   -3.9355    3.8163   -0.6802 O   0  0  0  0  0  0  0  0  0  0  0  0
   -6.5508   -1.8570    3.6760 C   0  0  0  0  0  0  0  0  0  0  0  0
   -3.7237   -0.8210    4.2806 C   0  0  0  0  0  0  0  0  0  0  0  0
   -3.6777   -0.6143    5.6589 C   0  0  0  0  0  0  0  0  0  0  0  0
   -2.7712   -1.3138    6.4287 C   0  0  0  0  0  0  0  0  0  0  0  0
   -1.9014   -2.2107    5.8343 C   0  0  0  0  0  0  0  0  0  0  0  0
   -1.9391   -2.4164    4.4670 C   0  0  0  0  0  0  0  0  0  0  0  0
   -2.8452   -1.7263    3.6874 C   0  0  0  0  0  0  0  0  0  0  0  0
   -2.8843   -1.9508    2.1977 C   0  0  0  0  0  0  0  0  0  0  0  0
   -2.7237   -1.0954    7.9191 C   0  0  0  0  0  0  0  0  0  0  0  0
    0.3644    0.7580    1.4193 H   0  0  0  0  0  0  0  0  0  0  0  0
    1.1770    2.3318    1.5959 H   0  0  0  0  0  0  0  0  0  0  0  0
   -0.1433    2.1391    0.4177 H   0  0  0  0  0  0  0  0  0  0  0  0
   -0.4216    1.9424    3.4510 H   0  0  0  0  0  0  0  0  0  0  0  0
   -0.9294    3.3235    2.4495 H   0  0  0  0  0  0  0  0  0  0  0  0
   -4.5014    3.5683    1.4693 H   0  0  0  0  0  0  0  0  0  0  0  0
   -7.9671    5.5117    1.1747 H   0  0  0  0  0  0  0  0  0  0  0  0
   -7.5618    6.5195   -0.2337 H   0  0  0  0  0  0  0  0  0  0  0  0
   -9.7409    4.9960   -0.4749 H   0  0  0  0  0  0  0  0  0  0  0  0
   -9.2618    3.4790   -2.1461 H   0  0  0  0  0  0  0  0  0  0  0  0
   -6.8222    2.5410   -1.5972 H   0  0  0  0  0  0  0  0  0  0  0  0
   -6.9761    3.4781   -3.0997 H   0  0  0  0  0  0  0  0  0  0  0  0
   -7.5668   -1.9431    3.2907 H   0  0  0  0  0  0  0  0  0  0  0  0
   -5.9531   -2.6940    3.3150 H   0  0  0  0  0  0  0  0  0  0  0  0
   -6.5732   -1.8696    4.7657 H   0  0  0  0  0  0  0  0  0  0  0  0
   -4.3531    0.0889    6.1234 H   0  0  0  0  0  0  0  0  0  0  0  0
   -1.1905   -2.7527    6.4403 H   0  0  0  0  0  0  0  0  0  0  0  0
   -1.2580   -3.1180    4.0086 H   0  0  0  0  0  0  0  0  0  0  0  0
   -2.2067   -1.2520    1.7071 H   0  0  0  0  0  0  0  0  0  0  0  0
   -2.5759   -2.9724    1.9760 H   0  0  0  0  0  0  0  0  0  0  0  0
   -3.8987   -1.7902    1.8326 H   0  0  0  0  0  0  0  0  0  0  0  0
   -2.0258   -0.2895    8.1461 H   0  0  0  0  0  0  0  0  0  0  0  0
   -3.7172   -0.8279    8.2789 H   0  0  0  0  0  0  0  0  0  0  0  0
   -2.3938   -2.0109    8.4101 H   0  0  0  0  0  0  0  0  0  0  0  0
   -4.1667    3.7086   -2.8753 O   0  5  0  0  0  0  0  0  0  0  0  0
  1  2  1  0  0  0  0
  1 33  1  0  0  0  0
  1 34  1  0  0  0  0
  1 35  1  0  0  0  0
  2  3  1  0  0  0  0
  2 36  1  0  0  0  0
  2 37  1  0  0  0  0
  3  4  1  0  0  0  0
  4  5  2  0  0  0  0
  4  6  1  0  0  0  0
  6 10  2  0  0  0  0
  6  7  1  0  0  0  0
  7  8  2  0  0  0  0
  7 25  1  0  0  0  0
  8  9  1  0  0  0  0
  8 24  1  0  0  0  0
  9 10  1  0  0  0  0
 10 11  1  0  0  0  0
 11 12  1  0  0  0  0
 11 38  1  0  0  0  0
 12 13  2  0  0  0  0
 12 14  1  0  0  0  0
 14 15  1  0  0  0  0
 14 20  1  0  0  0  0
 14 16  1  0  0  0  0
 16 17  1  0  0  0  0
 16 39  1  0  0  0  0
 16 40  1  0  0  0  0
 17 18  2  0  0  0  0
 17 41  1  0  0  0  0
 18 19  1  0  0  0  0
 18 42  1  0  0  0  0
 19 20  1  0  0  0  0
 19 43  1  0  0  0  0
 19 44  1  0  0  0  0
 20 21  1  0  0  0  0
 20 22  1  0  0  0  0
 22 23  2  0  0  0  0
 22 57  1  0  0  0  0
 24 45  1  0  0  0  0
 24 46  1  0  0  0  0
 24 47  1  0  0  0  0
 25 30  2  0  0  0  0
 25 26  1  0  0  0  0
 26 27  2  0  0  0  0
 26 48  1  0  0  0  0
 27 28  1  0  0  0  0
 27 32  1  0  0  0  0
 28 29  2  0  0  0  0
 28 49  1  0  0  0  0
 29 30  1  0  0  0  0
 29 50  1  0  0  0  0
 30 31  1  0  0  0  0
 31 51  1  0  0  0  0
 31 52  1  0  0  0  0
 31 53  1  0  0  0  0
 32 54  1  0  0  0  0
 32 55  1  0  0  0  0
 32 56  1  0  0  0  0
M  CHG  1  57  -1
M  END
$$$$
ZINC03864250
  -OEChem-08230709463D

 54 56  0     1  0  0  0  0  0999 V2000
   -4.6467    1.4539    7.9326 C   0  0  0  0  0  0  0  0  0  0  0  0
   -4.3237    2.2898    6.6924 C   0  0  0  0  0  0  0  0  0  0  0  0
   -2.8412    2.6676    6.7040 C   0  0  0  0  0  0  0  0  0  0  0  0
   -4.6171    1.5175    5.4984 O   0  0  0  0  0  0  0  0  0  0  0  0
   -4.9946    2.2056    4.4014 C   0  0  0  0  0  0  0  0  0  0  0  0
   -5.0761    3.4186    4.4425 O   0  0  0  0  0  0  0  0  0  0  0  0
   -5.3062    1.4924    3.1610 C   0  0  0  0  0  0  0  0  0  0  0  0
   -6.6592    1.0331    2.8750 C   0  0  0  0  0  0  0  0  0  0  0  0
   -6.8035    0.3827    1.7014 C   0  0  0  0  0  0  0  0  0  0  0  0
   -5.1883    0.3938    0.9720 S   0  0  0  0  0  0  0  0  0  0  0  0
   -4.3240    1.2311    2.2174 C   0  0  0  0  0  0  0  0  0  0  0  0
   -2.9792    1.5643    2.2584 N   0  0  0  0  0  0  0  0  0  0  0  0
   -2.1688    1.2228    1.2370 C   0  0  0  0  0  0  0  0  0  0  0  0
   -2.6163    0.6239    0.2821 O   0  0  0  0  0  0  0  0  0  0  0  0
   -0.7067    1.5851    1.2816 C   0  0  1  0  0  0  0  0  0  0  0  0
   -0.5963    2.6667    1.3591 H   0  0  0  0  0  0  0  0  0  0  0  0
   -0.0467    0.9125    2.4875 C   0  0  0  0  0  0  0  0  0  0  0  0
    1.4456    1.0437    2.3997 C   0  0  0  0  0  0  0  0  0  0  0  0
    2.0845    1.3468    1.3154 C   0  0  0  0  0  0  0  0  0  0  0  0
    1.4213    1.6198   -0.0028 C   0  0  0  0  0  0  0  0  0  0  0  0
   -0.0127    1.0858    0.0080 C   0  0  2  0  0  0  0  0  0  0  0  0
    0.0021   -0.0041    0.0020 H   0  0  0  0  0  0  0  0  0  0  0  0
   -0.7498    1.5891   -1.2063 C   0  0  0  0  0  0  0  0  0  0  0  0
   -1.7385    2.2708   -1.0733 O   0  0  0  0  0  0  0  0  0  0  0  0
   -8.0518   -0.2178    1.1342 C   0  0  0  0  0  0  0  0  0  0  0  0
   -9.1889    0.8094    1.2158 C   0  0  0  0  0  0  0  0  0  0  0  0
   -9.8940    0.6446    2.5585 C   0  0  0  0  0  0  0  0  0  0  0  0
   -8.8929    0.2125    3.6282 C   0  0  0  0  0  0  0  0  0  0  0  0
   -7.8252    1.2833    3.8235 C   0  0  0  0  0  0  0  0  0  0  0  0
   -4.0408    0.5479    7.9279 H   0  0  0  0  0  0  0  0  0  0  0  0
   -4.4265    2.0337    8.8289 H   0  0  0  0  0  0  0  0  0  0  0  0
   -5.7029    1.1848    7.9243 H   0  0  0  0  0  0  0  0  0  0  0  0
   -4.9296    3.1959    6.6971 H   0  0  0  0  0  0  0  0  0  0  0  0
   -2.6111    3.2631    5.8205 H   0  0  0  0  0  0  0  0  0  0  0  0
   -2.6209    3.2474    7.6003 H   0  0  0  0  0  0  0  0  0  0  0  0
   -2.2353    1.7616    6.6993 H   0  0  0  0  0  0  0  0  0  0  0  0
   -2.6212    2.0433    3.0222 H   0  0  0  0  0  0  0  0  0  0  0  0
   -0.3162   -0.1435    2.5048 H   0  0  0  0  0  0  0  0  0  0  0  0
   -0.3982    1.3901    3.4020 H   0  0  0  0  0  0  0  0  0  0  0  0
    2.0225    0.8743    3.2968 H   0  0  0  0  0  0  0  0  0  0  0  0
    3.1618    1.4067    1.3624 H   0  0  0  0  0  0  0  0  0  0  0  0
    1.9832    1.1301   -0.7982 H   0  0  0  0  0  0  0  0  0  0  0  0
    1.4052    2.6950   -0.1811 H   0  0  0  0  0  0  0  0  0  0  0  0
   -8.3213   -1.1056    1.7064 H   0  0  0  0  0  0  0  0  0  0  0  0
   -7.8832   -0.4923    0.0929 H   0  0  0  0  0  0  0  0  0  0  0  0
   -9.8978    0.6361    0.4062 H   0  0  0  0  0  0  0  0  0  0  0  0
   -8.7821    1.8175    1.1370 H   0  0  0  0  0  0  0  0  0  0  0  0
  -10.6738   -0.1115    2.4669 H   0  0  0  0  0  0  0  0  0  0  0  0
  -10.3439    1.5945    2.8473 H   0  0  0  0  0  0  0  0  0  0  0  0
   -8.4171   -0.7189    3.3211 H   0  0  0  0  0  0  0  0  0  0  0  0
   -9.4208    0.0544    4.5686 H   0  0  0  0  0  0  0  0  0  0  0  0
   -7.4673    1.2541    4.8527 H   0  0  0  0  0  0  0  0  0  0  0  0
   -8.2555    2.2634    3.6175 H   0  0  0  0  0  0  0  0  0  0  0  0
   -0.3080    1.2800   -2.4355 O   0  5  0  0  0  0  0  0  0  0  0  0
  1  2  1  0  0  0  0
  1 30  1  0  0  0  0
  1 31  1  0  0  0  0
  1 32  1  0  0  0  0
  2  3  1  0  0  0  0
  2  4  1  0  0  0  0
  2 33  1  0  0  0  0
  3 34  1  0  0  0  0
  3 35  1  0  0  0  0
  3 36  1  0  0  0  0
  4  5  1  0  0  0  0
  5  6  2  0  0  0  0
  5  7  1  0  0  0  0
  7 11  2  0  0  0  0
  7  8  1  0  0  0  0
  8 29  1  0  0  0  0
  8  9  2  0  0  0  0
  9 10  1  0  0  0  0
  9 25  1  0  0  0  0
 10 11  1  0  0  0  0
 11 12  1  0  0  0  0
 12 13  1  0  0  0  0
 12 37  1  0  0  0  0
 13 14  2  0  0  0  0
 13 15  1  0  0  0  0
 15 16  1  0  0  0  0
 15 21  1  0  0  0  0
 15 17  1  0  0  0  0
 17 18  1  0  0  0  0
 17 38  1  0  0  0  0
 17 39  1  0  0  0  0
 18 19  2  0  0  0  0
 18 40  1  0  0  0  0
 19 20  1  0  0  0  0
 19 41  1  0  0  0  0
 20 21  1  0  0  0  0
 20 42  1  0  0  0  0
 20 43  1  0  0  0  0
 21 22  1  0  0  0  0
 21 23  1  0  0  0  0
 23 24  2  0  0  0  0
 23 54  1  0  0  0  0
 25 26  1  0  0  0  0
 25 44  1  0  0  0  0
 25 45  1  0  0  0  0
 26 27  1  0  0  0  0
 26 46  1  0  0  0  0
 26 47  1  0  0  0  0
 27 28  1  0  0  0  0
 27 48  1  0  0  0  0
 27 49  1  0  0  0  0
 28 29  1  0  0  0  0
 28 50  1  0  0  0  0
 28 51  1  0  0  0  0
 29 52  1  0  0  0  0
 29 53  1  0  0  0  0
M  CHG  1  54  -1
M  END
$$$$
ZINC03864255
  -OEChem-08230709463D

 52 55  0     1  0  0  0  0  0999 V2000
    4.6077    5.2029   -4.6232 C   0  0  0  0  0  0  0  0  0  0  0  0
    4.0377    3.7852   -4.7016 C   0  0  0  0  0  0  0  0  0  0  0  0
    3.0987    3.5469   -3.5174 C   0  0  1  0  0  0  0  0  0  0  0  0
    2.3352    4.3244   -3.4916 H   0  0  0  0  0  0  0  0  0  0  0  0
    2.4309    2.1761   -3.6596 C   0  0  0  0  0  0  0  0  0  0  0  0
    1.3147    2.0314   -2.6237 C   0  0  0  0  0  0  0  0  0  0  0  0
    1.8796    2.3541   -1.2459 C   0  0  0  0  0  0  0  0  0  0  0  0
    3.0343    3.0412   -1.1111 C   0  0  0  0  0  0  0  0  0  0  0  0
    3.2833    3.1705    0.6370 S   0  0  0  0  0  0  0  0  0  0  0  0
    1.8710    2.3289    1.1839 C   0  0  0  0  0  0  0  0  0  0  0  0
    1.2436    1.9616    0.0007 C   0  0  0  0  0  0  0  0  0  0  0  0
   -0.0144    1.2122    0.0087 C   0  0  0  0  0  0  0  0  0  0  0  0
    0.0021   -0.0041    0.0020 O   0  0  0  0  0  0  0  0  0  0  0  0
   -1.1916    1.8707    0.0179 O   0  0  0  0  0  0  0  0  0  0  0  0
   -2.3985    1.0634    0.0192 C   0  0  0  0  0  0  0  0  0  0  0  0
    1.4663    2.0812    2.4863 N   0  0  0  0  0  0  0  0  0  0  0  0
    2.2128    2.5203    3.5190 C   0  0  0  0  0  0  0  0  0  0  0  0
    3.2386    3.1322    3.3087 O   0  0  0  0  0  0  0  0  0  0  0  0
    1.7728    2.2509    4.9349 C   0  0  1  0  0  0  0  0  0  0  0  0
    1.6537    1.1802    5.1009 H   0  0  0  0  0  0  0  0  0  0  0  0
    2.7942    2.8538    5.9514 C   0  0  1  0  0  0  0  0  0  0  0  0
    3.8483    2.6718    5.7420 H   0  0  0  0  0  0  0  0  0  0  0  0
    2.3123    4.3503    5.9841 C   0  0  0  0  0  0  0  0  0  0  0  0
    0.8495    3.9655    6.4144 C   0  0  1  0  0  0  0  0  0  0  0  0
    0.1688    4.7905    6.6248 H   0  0  0  0  0  0  0  0  0  0  0  0
    0.4565    3.0035    5.2484 C   0  0  2  0  0  0  0  0  0  0  0  0
    0.1231    3.5708    4.3794 H   0  0  0  0  0  0  0  0  0  0  0  0
   -0.6119    2.0388    5.6947 C   0  0  0  0  0  0  0  0  0  0  0  0
   -0.3684    0.8574    5.7637 O   0  0  0  0  0  0  0  0  0  0  0  0
    1.1608    3.0250    7.5851 C   0  0  0  0  0  0  0  0  0  0  0  0
    2.2812    2.3845    7.3183 C   0  0  0  0  0  0  0  0  0  0  0  0
    3.9031    3.5719   -2.2095 C   0  0  0  0  0  0  0  0  0  0  0  0
    5.2766    5.3727   -5.4669 H   0  0  0  0  0  0  0  0  0  0  0  0
    3.7917    5.9249   -4.6554 H   0  0  0  0  0  0  0  0  0  0  0  0
    5.1608    5.3211   -3.6914 H   0  0  0  0  0  0  0  0  0  0  0  0
    4.8536    3.0633   -4.6694 H   0  0  0  0  0  0  0  0  0  0  0  0
    3.4846    3.6670   -5.6334 H   0  0  0  0  0  0  0  0  0  0  0  0
    3.1734    1.3936   -3.5036 H   0  0  0  0  0  0  0  0  0  0  0  0
    2.0105    2.0803   -4.6607 H   0  0  0  0  0  0  0  0  0  0  0  0
    0.9373    1.0088   -2.6336 H   0  0  0  0  0  0  0  0  0  0  0  0
    0.5045    2.7221   -2.8574 H   0  0  0  0  0  0  0  0  0  0  0  0
   -2.4190    0.4391   -0.8741 H   0  0  0  0  0  0  0  0  0  0  0  0
   -2.4106    0.4294    0.9058 H   0  0  0  0  0  0  0  0  0  0  0  0
   -3.2718    1.7155    0.0269 H   0  0  0  0  0  0  0  0  0  0  0  0
    0.6459    1.5918    2.6544 H   0  0  0  0  0  0  0  0  0  0  0  0
    2.8293    4.9390    6.7419 H   0  0  0  0  0  0  0  0  0  0  0  0
    2.3481    4.8221    5.0021 H   0  0  0  0  0  0  0  0  0  0  0  0
    0.5629    2.9073    8.4768 H   0  0  0  0  0  0  0  0  0  0  0  0
    2.7575    1.6531    7.9544 H   0  0  0  0  0  0  0  0  0  0  0  0
    4.7895    2.9459   -2.3116 H   0  0  0  0  0  0  0  0  0  0  0  0
    4.2007    4.5953   -1.9811 H   0  0  0  0  0  0  0  0  0  0  0  0
   -1.8339    2.4922    6.0156 O   0  5  0  0  0  0  0  0  0  0  0  0
  1  2  1  0  0  0  0
  1 33  1  0  0  0  0
  1 34  1  0  0  0  0
  1 35  1  0  0  0  0
  2  3  1  0  0  0  0
  2 36  1  0  0  0  0
  2 37  1  0  0  0  0
  3  4  1  0  0  0  0
  3 32  1  0  0  0  0
  3  5  1  0  0  0  0
  5  6  1  0  0  0  0
  5 38  1  0  0  0  0
  5 39  1  0  0  0  0
  6  7  1  0  0  0  0
  6 40  1  0  0  0  0
  6 41  1  0  0  0  0
  7 11  1  0  0  0  0
  7  8  2  0  0  0  0
  8  9  1  0  0  0  0
  8 32  1  0  0  0  0
  9 10  1  0  0  0  0
 10 11  2  0  0  0  0
 10 16  1  0  0  0  0
 11 12  1  0  0  0  0
 12 13  2  0  0  0  0
 12 14  1  0  0  0  0
 14 15  1  0  0  0  0
 15 42  1  0  0  0  0
 15 43  1  0  0  0  0
 15 44  1  0  0  0  0
 16 17  1  0  0  0  0
 16 45  1  0  0  0  0
 17 18  2  0  0  0  0
 17 19  1  0  0  0  0
 19 20  1  0  0  0  0
 19 26  1  0  0  0  0
 19 21  1  0  0  0  0
 21 22  1  0  0  0  0
 21 31  1  0  0  0  0
 21 23  1  0  0  0  0
 23 24  1  0  0  0  0
 23 46  1  0  0  0  0
 23 47  1  0  0  0  0
 24 25  1  0  0  0  0
 24 26  1  0  0  0  0
 24 30  1  0  0  0  0
 26 27  1  0  0  0  0
 26 28  1  0  0  0  0
 28 29  2  0  0  0  0
 28 52  1  0  0  0  0
 30 31  2  0  0  0  0
 30 48  1  0  0  0  0
 31 49  1  0  0  0  0
 32 50  1  0  0  0  0
 32 51  1  0  0  0  0
M  CHG  1  52  -1
M  END
$$$$
ZINC03864256
  -OEChem-08230709463D

 60 62  0     1  0  0  0  0  0999 V2000
    2.5432    6.0621   -2.4945 C   0  0  0  0  0  0  0  0  0  0  0  0
    2.3834    5.4955   -1.0823 C   0  0  0  0  0  0  0  0  0  0  0  0
    1.9511    4.1117   -1.1620 O   0  0  0  0  0  0  0  0  0  0  0  0
    1.7621    3.4610    0.0043 C   0  0  0  0  0  0  0  0  0  0  0  0
    1.9537    4.0354    1.0592 O   0  0  0  0  0  0  0  0  0  0  0  0
    1.3264    2.0630    0.0005 C   0  0  0  0  0  0  0  0  0  0  0  0
    2.2881    0.9734   -0.0145 C   0  0  0  0  0  0  0  0  0  0  0  0
    1.7528   -0.2664   -0.0165 C   0  0  0  0  0  0  0  0  0  0  0  0
    0.0021   -0.0041    0.0020 S   0  0  0  0  0  0  0  0  0  0  0  0
   -0.0214    1.7284    0.0115 C   0  0  0  0  0  0  0  0  0  0  0  0
   -1.1190    2.5748    0.0216 N   0  0  0  0  0  0  0  0  0  0  0  0
   -2.3654    2.0621    0.0255 C   0  0  0  0  0  0  0  0  0  0  0  0
   -2.5267    0.8601    0.0202 O   0  0  0  0  0  0  0  0  0  0  0  0
   -3.5587    2.9824    0.0364 C   0  0  1  0  0  0  0  0  0  0  0  0
   -3.5267    3.6133    0.9248 H   0  0  0  0  0  0  0  0  0  0  0  0
   -3.5466    3.8553   -1.2204 C   0  0  0  0  0  0  0  0  0  0  0  0
   -4.8525    4.5820   -1.3576 C   0  0  0  0  0  0  0  0  0  0  0  0
   -5.9355    4.2520   -0.7301 C   0  0  0  0  0  0  0  0  0  0  0  0
   -6.0341    3.1028    0.2299 C   0  0  0  0  0  0  0  0  0  0  0  0
   -4.8493    2.1534    0.0390 C   0  0  2  0  0  0  0  0  0  0  0  0
   -4.9496    1.6287   -0.9112 H   0  0  0  0  0  0  0  0  0  0  0  0
   -4.8100    1.1584    1.1702 C   0  0  0  0  0  0  0  0  0  0  0  0
   -3.8497    1.1135    1.9021 O   0  0  0  0  0  0  0  0  0  0  0  0
    2.4915   -1.5692   -0.0321 C   0  0  0  0  0  0  0  0  0  0  0  0
    3.9503   -1.2932   -0.4245 C   0  0  1  0  0  0  0  0  0  0  0  0
    4.0020   -1.0364   -1.4826 H   0  0  0  0  0  0  0  0  0  0  0  0
    4.4735   -0.1234    0.4139 C   0  0  0  0  0  0  0  0  0  0  0  0
    3.7983    1.1762   -0.0279 C   0  0  0  0  0  0  0  0  0  0  0  0
    4.8005   -2.5368   -0.1566 C   0  0  0  0  0  0  0  0  0  0  0  0
    4.7206   -2.8991    1.3277 C   0  0  0  0  0  0  0  0  0  0  0  0
    4.2756   -3.7038   -0.9954 C   0  0  0  0  0  0  0  0  0  0  0  0
    6.2553   -2.2510   -0.5342 C   0  0  0  0  0  0  0  0  0  0  0  0
    2.8677    7.1009   -2.4346 H   0  0  0  0  0  0  0  0  0  0  0  0
    3.2875    5.4797   -3.0375 H   0  0  0  0  0  0  0  0  0  0  0  0
    1.5883    6.0093   -3.0174 H   0  0  0  0  0  0  0  0  0  0  0  0
    1.6391    6.0779   -0.5392 H   0  0  0  0  0  0  0  0  0  0  0  0
    3.3383    5.5483   -0.5594 H   0  0  0  0  0  0  0  0  0  0  0  0
   -0.9900    3.5362    0.0258 H   0  0  0  0  0  0  0  0  0  0  0  0
   -2.7356    4.5800   -1.1492 H   0  0  0  0  0  0  0  0  0  0  0  0
   -3.3899    3.2255   -2.0961 H   0  0  0  0  0  0  0  0  0  0  0  0
   -4.8911    5.4330   -2.0214 H   0  0  0  0  0  0  0  0  0  0  0  0
   -6.8235    4.8401   -0.9088 H   0  0  0  0  0  0  0  0  0  0  0  0
   -6.9632    2.5615    0.0514 H   0  0  0  0  0  0  0  0  0  0  0  0
   -6.0294    3.4857    1.2505 H   0  0  0  0  0  0  0  0  0  0  0  0
    2.4567   -2.0229    0.9583 H   0  0  0  0  0  0  0  0  0  0  0  0
    2.0365   -2.2406   -0.7603 H   0  0  0  0  0  0  0  0  0  0  0  0
    5.5516   -0.0351    0.2794 H   0  0  0  0  0  0  0  0  0  0  0  0
    4.2536   -0.3063    1.4656 H   0  0  0  0  0  0  0  0  0  0  0  0
    4.1236    1.4326   -1.0361 H   0  0  0  0  0  0  0  0  0  0  0  0
    4.0650    1.9804    0.6577 H   0  0  0  0  0  0  0  0  0  0  0  0
    3.6841   -3.1026    1.5968 H   0  0  0  0  0  0  0  0  0  0  0  0
    5.3262   -3.7850    1.5186 H   0  0  0  0  0  0  0  0  0  0  0  0
    5.0945   -2.0677    1.9253 H   0  0  0  0  0  0  0  0  0  0  0  0
    4.3326   -3.4457   -2.0528 H   0  0  0  0  0  0  0  0  0  0  0  0
    4.8813   -4.5897   -0.8045 H   0  0  0  0  0  0  0  0  0  0  0  0
    3.2391   -3.9073   -0.7263 H   0  0  0  0  0  0  0  0  0  0  0  0
    6.6292   -1.4196    0.0633 H   0  0  0  0  0  0  0  0  0  0  0  0
    6.8610   -3.1370   -0.3433 H   0  0  0  0  0  0  0  0  0  0  0  0
    6.3123   -1.9929   -1.5917 H   0  0  0  0  0  0  0  0  0  0  0  0
   -5.8417    0.3221    1.3645 O   0  5  0  0  0  0  0  0  0  0  0  0
  1  2  1  0  0  0  0
  1 33  1  0  0  0  0
  1 34  1  0  0  0  0
  1 35  1  0  0  0  0
  2  3  1  0  0  0  0
  2 36  1  0  0  0  0
  2 37  1  0  0  0  0
  3  4  1  0  0  0  0
  4  5  2  0  0  0  0
  4  6  1  0  0  0  0
  6 10  2  0  0  0  0
  6  7  1  0  0  0  0
  7 28  1  0  0  0  0
  7  8  2  0  0  0  0
  8  9  1  0  0  0  0
  8 24  1  0  0  0  0
  9 10  1  0  0  0  0
 10 11  1  0  0  0  0
 11 12  1  0  0  0  0
 11 38  1  0  0  0  0
 12 13  2  0  0  0  0
 12 14  1  0  0  0  0
 14 15  1  0  0  0  0
 14 20  1  0  0  0  0
 14 16  1  0  0  0  0
 16 17  1  0  0  0  0
 16 39  1  0  0  0  0
 16 40  1  0  0  0  0
 17 18  2  0  0  0  0
 17 41  1  0  0  0  0
 18 19  1  0  0  0  0
 18 42  1  0  0  0  0
 19 20  1  0  0  0  0
 19 43  1  0  0  0  0
 19 44  1  0  0  0  0
 20 21  1  0  0  0  0
 20 22  1  0  0  0  0
 22 23  2  0  0  0  0
 22 60  1  0  0  0  0
 24 25  1  0  0  0  0
 24 45  1  0  0  0  0
 24 46  1  0  0  0  0
 25 26  1  0  0  0  0
 25 27  1  0  0  0  0
 25 29  1  0  0  0  0
 27 28  1  0  0  0  0
 27 47  1  0  0  0  0
 27 48  1  0  0  0  0
 28 49  1  0  0  0  0
 28 50  1  0  0  0  0
 29 30  1  0  0  0  0
 29 31  1  0  0  0  0
 29 32  1  0  0  0  0
 30 51  1  0  0  0  0
 30 52  1  0  0  0  0
 30 53  1  0  0  0  0
 31 54  1  0  0  0  0
 31 55  1  0  0  0  0
 31 56  1  0  0  0  0
 32 57  1  0  0  0  0
 32 58  1  0  0  0  0
 32 59  1  0  0  0  0
M  CHG  1  60  -1
M  END
$$$$
ZINC03864259
  -OEChem-08230709463D

 53 55  0     1  0  0  0  0  0999 V2000
   -1.4333   -0.5336    0.0129 C   0  0  0  0  0  0  0  0  0  0  0  0
    0.0021   -0.0041    0.0020 C   0  0  0  0  0  0  0  0  0  0  0  0
   -0.0176    1.4478    0.0100 O   0  0  0  0  0  0  0  0  0  0  0  0
    1.1759    2.0765    0.0020 C   0  0  0  0  0  0  0  0  0  0  0  0
    2.2050    1.4279   -0.0113 O   0  0  0  0  0  0  0  0  0  0  0  0
    1.2326    3.5383    0.0093 C   0  0  0  0  0  0  0  0  0  0  0  0
    1.2503    4.3053   -1.2220 C   0  0  0  0  0  0  0  0  0  0  0  0
    1.3039    5.6560   -1.0989 C   0  0  0  0  0  0  0  0  0  0  0  0
    1.3309    5.9061    0.6637 S   0  0  0  0  0  0  0  0  0  0  0  0
    1.2663    4.2599    1.1951 C   0  0  0  0  0  0  0  0  0  0  0  0
    1.2535    3.7773    2.4940 N   0  0  0  0  0  0  0  0  0  0  0  0
    1.2919    4.6358    3.5323 C   0  0  0  0  0  0  0  0  0  0  0  0
    1.3377    5.8307    3.3298 O   0  0  0  0  0  0  0  0  0  0  0  0
    1.2780    4.1110    4.9449 C   0  0  1  0  0  0  0  0  0  0  0  0
    0.3657    3.5380    5.1106 H   0  0  0  0  0  0  0  0  0  0  0  0
    2.4940    3.2091    5.1659 C   0  0  0  0  0  0  0  0  0  0  0  0
    2.4798    2.6763    6.6000 C   0  0  0  0  0  0  0  0  0  0  0  0
    2.5303    3.8497    7.5806 C   0  0  0  0  0  0  0  0  0  0  0  0
    1.3143    4.7516    7.3596 C   0  0  0  0  0  0  0  0  0  0  0  0
    1.3284    5.2844    5.9254 C   0  0  2  0  0  0  0  0  0  0  0  0
    2.2407    5.8574    5.7597 H   0  0  0  0  0  0  0  0  0  0  0  0
    0.1307    6.1727    5.7078 C   0  0  0  0  0  0  0  0  0  0  0  0
   -0.6801    5.8958    4.8558 O   0  0  0  0  0  0  0  0  0  0  0  0
    1.2113    3.6463   -2.5492 C   0  0  0  0  0  0  0  0  0  0  0  0
    2.0960    2.6093   -2.8419 C   0  0  0  0  0  0  0  0  0  0  0  0
    2.0505    1.9951   -4.0768 C   0  0  0  0  0  0  0  0  0  0  0  0
    1.1381    2.4152   -5.0280 C   0  0  0  0  0  0  0  0  0  0  0  0
    0.2619    3.4477   -4.7454 C   0  0  0  0  0  0  0  0  0  0  0  0
    0.2936    4.0650   -3.5117 C   0  0  0  0  0  0  0  0  0  0  0  0
    1.0980    1.7449   -6.3771 C   0  0  0  0  0  0  0  0  0  0  0  0
   -1.4185   -1.6235    0.0069 H   0  0  0  0  0  0  0  0  0  0  0  0
   -1.9435   -0.1821    0.9097 H   0  0  0  0  0  0  0  0  0  0  0  0
   -1.9605   -0.1726   -0.8702 H   0  0  0  0  0  0  0  0  0  0  0  0
    0.5123   -0.3556   -0.8948 H   0  0  0  0  0  0  0  0  0  0  0  0
    0.5293   -0.3651    0.8851 H   0  0  0  0  0  0  0  0  0  0  0  0
    1.3252    6.3999   -1.8816 H   0  0  0  0  0  0  0  0  0  0  0  0
    1.2169    2.8217    2.6560 H   0  0  0  0  0  0  0  0  0  0  0  0
    2.4581    2.3731    4.4673 H   0  0  0  0  0  0  0  0  0  0  0  0
    3.4063    3.7821    5.0001 H   0  0  0  0  0  0  0  0  0  0  0  0
    3.3461    2.0337    6.7574 H   0  0  0  0  0  0  0  0  0  0  0  0
    1.5676    2.1032    6.7657 H   0  0  0  0  0  0  0  0  0  0  0  0
    3.4425    4.4227    7.4148 H   0  0  0  0  0  0  0  0  0  0  0  0
    2.5202    3.4701    8.6023 H   0  0  0  0  0  0  0  0  0  0  0  0
    1.3502    5.5875    8.0581 H   0  0  0  0  0  0  0  0  0  0  0  0
    0.4020    4.1785    7.5253 H   0  0  0  0  0  0  0  0  0  0  0  0
    2.8123    2.2840   -2.1019 H   0  0  0  0  0  0  0  0  0  0  0  0
    2.7316    1.1880   -4.3028 H   0  0  0  0  0  0  0  0  0  0  0  0
   -0.4485    3.7712   -5.4918 H   0  0  0  0  0  0  0  0  0  0  0  0
   -0.3914    4.8706   -3.2919 H   0  0  0  0  0  0  0  0  0  0  0  0
    1.7726    2.2616   -7.0598 H   0  0  0  0  0  0  0  0  0  0  0  0
    1.4099    0.7054   -6.2758 H   0  0  0  0  0  0  0  0  0  0  0  0
    0.0827    1.7828   -6.7717 H   0  0  0  0  0  0  0  0  0  0  0  0
   -0.0355    7.2717    6.4604 O   0  5  0  0  0  0  0  0  0  0  0  0
  1  2  1  0  0  0  0
  1 31  1  0  0  0  0
  1 32  1  0  0  0  0
  1 33  1  0  0  0  0
  2  3  1  0  0  0  0
  2 34  1  0  0  0  0
  2 35  1  0  0  0  0
  3  4  1  0  0  0  0
  4  5  2  0  0  0  0
  4  6  1  0  0  0  0
  6 10  2  0  0  0  0
  6  7  1  0  0  0  0
  7  8  2  0  0  0  0
  7 24  1  0  0  0  0
  8  9  1  0  0  0  0
  8 36  1  0  0  0  0
  9 10  1  0  0  0  0
 10 11  1  0  0  0  0
 11 12  1  0  0  0  0
 11 37  1  0  0  0  0
 12 13  2  0  0  0  0
 12 14  1  0  0  0  0
 14 15  1  0  0  0  0
 14 20  1  0  0  0  0
 14 16  1  0  0  0  0
 16 17  1  0  0  0  0
 16 38  1  0  0  0  0
 16 39  1  0  0  0  0
 17 18  1  0  0  0  0
 17 40  1  0  0  0  0
 17 41  1  0  0  0  0
 18 19  1  0  0  0  0
 18 42  1  0  0  0  0
 18 43  1  0  0  0  0
 19 20  1  0  0  0  0
 19 44  1  0  0  0  0
 19 45  1  0  0  0  0
 20 21  1  0  0  0  0
 20 22  1  0  0  0  0
 22 23  2  0  0  0  0
 22 53  1  0  0  0  0
 24 29  2  0  0  0  0
 24 25  1  0  0  0  0
 25 26  2  0  0  0  0
 25 46  1  0  0  0  0
 26 27  1  0  0  0  0
 26 47  1  0  0  0  0
 27 28  2  0  0  0  0
 27 30  1  0  0  0  0
 28 29  1  0  0  0  0
 28 48  1  0  0  0  0
 29 49  1  0  0  0  0
 30 50  1  0  0  0  0
 30 51  1  0  0  0  0
 30 52  1  0  0  0  0
M  CHG  1  53  -1
M  END
$$$$
ZINC03864262
  -OEChem-08230709463D

 50 52  0     1  0  0  0  0  0999 V2000
   -8.2321    6.9904    2.6849 C   0  0  0  0  0  0  0  0  0  0  0  0
   -7.4652    6.5992    1.5157 O   0  0  0  0  0  0  0  0  0  0  0  0
   -7.4771    5.2917    1.1849 C   0  0  0  0  0  0  0  0  0  0  0  0
   -8.1118    4.5002    1.8560 O   0  0  0  0  0  0  0  0  0  0  0  0
   -6.7261    4.8249    0.0177 C   0  0  0  0  0  0  0  0  0  0  0  0
   -5.3429    4.3938    0.1340 C   0  0  0  0  0  0  0  0  0  0  0  0
   -4.7679    3.9882   -1.0186 C   0  0  0  0  0  0  0  0  0  0  0  0
   -6.0321    4.1708   -2.2444 S   0  0  0  0  0  0  0  0  0  0  0  0
   -7.3084    4.7778   -1.2422 C   0  0  0  0  0  0  0  0  0  0  0  0
   -8.5978    5.1305   -1.6088 N   0  0  0  0  0  0  0  0  0  0  0  0
   -8.9883    5.0159   -2.8936 C   0  0  0  0  0  0  0  0  0  0  0  0
   -8.2114    4.6043   -3.7291 O   0  0  0  0  0  0  0  0  0  0  0  0
  -10.3901    5.3993   -3.2922 C   0  0  0  0  0  0  0  0  0  0  0  0
  -10.5724    5.1756   -4.7947 C   0  0  0  0  0  0  0  0  0  0  0  0
  -11.9956    5.5649   -5.1994 C   0  0  0  0  0  0  0  0  0  0  0  0
  -12.1751    5.3446   -6.6793 C   0  0  0  0  0  0  0  0  0  0  0  0
  -11.2587    4.9198   -7.3424 O   0  0  0  0  0  0  0  0  0  0  0  0
   -3.3660    3.4948   -1.2038 C   0  0  0  0  0  0  0  0  0  0  0  0
   -2.5529    3.8685    0.0441 C   0  0  1  0  0  0  0  0  0  0  0  0
   -2.3703    4.9431    0.0530 H   0  0  0  0  0  0  0  0  0  0  0  0
   -3.3497    3.4699    1.2897 C   0  0  0  0  0  0  0  0  0  0  0  0
   -4.5653    4.3855    1.4444 C   0  0  0  0  0  0  0  0  0  0  0  0
   -1.2377    3.1328    0.0290 C   0  0  0  0  0  0  0  0  0  0  0  0
   -1.2190    1.7507    0.0173 C   0  0  0  0  0  0  0  0  0  0  0  0
   -0.0126    1.0758    0.0080 C   0  0  0  0  0  0  0  0  0  0  0  0
    1.1750    1.7832    0.0004 C   0  0  0  0  0  0  0  0  0  0  0  0
    1.1563    3.1654    0.0081 C   0  0  0  0  0  0  0  0  0  0  0  0
   -0.0501    3.8402    0.0223 C   0  0  0  0  0  0  0  0  0  0  0  0
   -7.8538    6.4632    3.5607 H   0  0  0  0  0  0  0  0  0  0  0  0
   -8.1372    8.0653    2.8388 H   0  0  0  0  0  0  0  0  0  0  0  0
   -9.2812    6.7363    2.5330 H   0  0  0  0  0  0  0  0  0  0  0  0
   -9.2191    5.4597   -0.9406 H   0  0  0  0  0  0  0  0  0  0  0  0
  -11.1045    4.7850   -2.7441 H   0  0  0  0  0  0  0  0  0  0  0  0
  -10.5599    6.4503   -3.0581 H   0  0  0  0  0  0  0  0  0  0  0  0
   -9.8580    5.7899   -5.3428 H   0  0  0  0  0  0  0  0  0  0  0  0
  -10.4026    4.1247   -5.0288 H   0  0  0  0  0  0  0  0  0  0  0  0
  -12.7100    4.9506   -4.6513 H   0  0  0  0  0  0  0  0  0  0  0  0
  -12.1653    6.6158   -4.9653 H   0  0  0  0  0  0  0  0  0  0  0  0
   -2.9250    3.9637   -2.0834 H   0  0  0  0  0  0  0  0  0  0  0  0
   -3.3706    2.4120   -1.3284 H   0  0  0  0  0  0  0  0  0  0  0  0
   -3.6844    2.4373    1.1904 H   0  0  0  0  0  0  0  0  0  0  0  0
   -2.7139    3.5602    2.1704 H   0  0  0  0  0  0  0  0  0  0  0  0
   -4.2335    5.3970    1.6788 H   0  0  0  0  0  0  0  0  0  0  0  0
   -5.2043    4.0156    2.2462 H   0  0  0  0  0  0  0  0  0  0  0  0
   -2.1469    1.1980    0.0188 H   0  0  0  0  0  0  0  0  0  0  0  0
    0.0021   -0.0041    0.0020 H   0  0  0  0  0  0  0  0  0  0  0  0
    2.1175    1.2560   -0.0111 H   0  0  0  0  0  0  0  0  0  0  0  0
    2.0841    3.7181    0.0025 H   0  0  0  0  0  0  0  0  0  0  0  0
   -0.0647    4.9201    0.0280 H   0  0  0  0  0  0  0  0  0  0  0  0
  -13.3530    5.6202   -7.2609 O   0  5  0  0  0  0  0  0  0  0  0  0
  1  2  1  0  0  0  0
  1 29  1  0  0  0  0
  1 30  1  0  0  0  0
  1 31  1  0  0  0  0
  2  3  1  0  0  0  0
  3  4  2  0  0  0  0
  3  5  1  0  0  0  0
  5  9  2  0  0  0  0
  5  6  1  0  0  0  0
  6 22  1  0  0  0  0
  6  7  2  0  0  0  0
  7  8  1  0  0  0  0
  7 18  1  0  0  0  0
  8  9  1  0  0  0  0
  9 10  1  0  0  0  0
 10 11  1  0  0  0  0
 10 32  1  0  0  0  0
 11 12  2  0  0  0  0
 11 13  1  0  0  0  0
 13 14  1  0  0  0  0
 13 33  1  0  0  0  0
 13 34  1  0  0  0  0
 14 15  1  0  0  0  0
 14 35  1  0  0  0  0
 14 36  1  0  0  0  0
 15 16  1  0  0  0  0
 15 37  1  0  0  0  0
 15 38  1  0  0  0  0
 16 17  2  0  0  0  0
 16 50  1  0  0  0  0
 18 19  1  0  0  0  0
 18 39  1  0  0  0  0
 18 40  1  0  0  0  0
 19 20  1  0  0  0  0
 19 21  1  0  0  0  0
 19 23  1  0  0  0  0
 21 22  1  0  0  0  0
 21 41  1  0  0  0  0
 21 42  1  0  0  0  0
 22 43  1  0  0  0  0
 22 44  1  0  0  0  0
 23 28  2  0  0  0  0
 23 24  1  0  0  0  0
 24 25  2  0  0  0  0
 24 45  1  0  0  0  0
 25 26  1  0  0  0  0
 25 46  1  0  0  0  0
 26 27  2  0  0  0  0
 26 47  1  0  0  0  0
 27 28  1  0  0  0  0
 27 48  1  0  0  0  0
 28 49  1  0  0  0  0
M  CHG  1  50  -1
M  END
$$$$
ZINC03864263
  -OEChem-08230709463D

 56 58  0     1  0  0  0  0  0999 V2000
    1.8142    1.7666  -11.5586 C   0  0  0  0  0  0  0  0  0  0  0  0
    2.0773    1.5885  -10.0854 C   0  0  0  0  0  0  0  0  0  0  0  0
    3.3387    1.8389   -9.5757 C   0  0  0  0  0  0  0  0  0  0  0  0
    3.5856    1.6775   -8.2276 C   0  0  0  0  0  0  0  0  0  0  0  0
    2.5607    1.2613   -7.3789 C   0  0  0  0  0  0  0  0  0  0  0  0
    1.2928    1.0054   -7.8993 C   0  0  0  0  0  0  0  0  0  0  0  0
    1.0563    1.1757   -9.2482 C   0  0  0  0  0  0  0  0  0  0  0  0
    2.8196    1.0857   -5.9301 C   0  0  0  0  0  0  0  0  0  0  0  0
    3.8752    0.3619   -5.4780 C   0  0  0  0  0  0  0  0  0  0  0  0
    3.7224    0.4764   -3.7077 S   0  0  0  0  0  0  0  0  0  0  0  0
    2.2942    1.4483   -3.5983 C   0  0  0  0  0  0  0  0  0  0  0  0
    1.9569    1.6784   -4.9255 C   0  0  0  0  0  0  0  0  0  0  0  0
    0.7888    2.4788   -5.2927 C   0  0  0  0  0  0  0  0  0  0  0  0
    0.8989    3.6806   -5.4466 O   0  0  0  0  0  0  0  0  0  0  0  0
   -0.4104    1.8844   -5.4608 O   0  0  0  0  0  0  0  0  0  0  0  0
   -1.5252    2.7404   -5.8248 C   0  0  0  0  0  0  0  0  0  0  0  0
   -1.6190    2.8351   -7.3490 C   0  0  0  0  0  0  0  0  0  0  0  0
   -2.8234    2.1510   -5.2696 C   0  0  0  0  0  0  0  0  0  0  0  0
    1.6456    1.8952   -2.4582 N   0  0  0  0  0  0  0  0  0  0  0  0
    2.1221    1.5693   -1.2403 C   0  0  0  0  0  0  0  0  0  0  0  0
    3.1185    0.8850   -1.1422 O   0  0  0  0  0  0  0  0  0  0  0  0
    1.4167    2.0553   -0.0004 C   0  0  1  0  0  0  0  0  0  0  0  0
    1.4019    3.1452    0.0056 H   0  0  0  0  0  0  0  0  0  0  0  0
   -0.0187    1.5258    0.0104 C   0  0  0  0  0  0  0  0  0  0  0  0
    0.0021   -0.0041    0.0020 C   0  0  0  0  0  0  0  0  0  0  0  0
    0.7421   -0.5109    1.2415 C   0  0  0  0  0  0  0  0  0  0  0  0
    2.1775    0.0187    1.2307 C   0  0  0  0  0  0  0  0  0  0  0  0
    2.1567    1.5485    1.2391 C   0  0  1  0  0  0  0  0  0  0  0  0
    1.6465    1.9000    2.1359 H   0  0  0  0  0  0  0  0  0  0  0  0
    3.5705    2.0701    1.2284 C   0  0  0  0  0  0  0  0  0  0  0  0
    3.9476    2.7750    0.3223 O   0  0  0  0  0  0  0  0  0  0  0  0
    2.0120    0.8294  -12.0789 H   0  0  0  0  0  0  0  0  0  0  0  0
    0.7735    2.0534  -11.7097 H   0  0  0  0  0  0  0  0  0  0  0  0
    2.4667    2.5457  -11.9526 H   0  0  0  0  0  0  0  0  0  0  0  0
    4.1317    2.1616  -10.2340 H   0  0  0  0  0  0  0  0  0  0  0  0
    4.5706    1.8736   -7.8307 H   0  0  0  0  0  0  0  0  0  0  0  0
    0.4961    0.6788   -7.2474 H   0  0  0  0  0  0  0  0  0  0  0  0
    0.0734    0.9821   -9.6517 H   0  0  0  0  0  0  0  0  0  0  0  0
    4.6289   -0.1551   -6.0534 H   0  0  0  0  0  0  0  0  0  0  0  0
   -1.3705    3.7355   -5.4079 H   0  0  0  0  0  0  0  0  0  0  0  0
   -0.6942    3.2550   -7.7446 H   0  0  0  0  0  0  0  0  0  0  0  0
   -1.7738    1.8399   -7.7660 H   0  0  0  0  0  0  0  0  0  0  0  0
   -2.4559    3.4777   -7.6224 H   0  0  0  0  0  0  0  0  0  0  0  0
   -2.7566    2.0836   -4.1838 H   0  0  0  0  0  0  0  0  0  0  0  0
   -3.6603    2.7936   -5.5429 H   0  0  0  0  0  0  0  0  0  0  0  0
   -2.9781    1.1559   -5.6866 H   0  0  0  0  0  0  0  0  0  0  0  0
    0.8486    2.4426   -2.5366 H   0  0  0  0  0  0  0  0  0  0  0  0
   -0.5459    1.8868   -0.8726 H   0  0  0  0  0  0  0  0  0  0  0  0
   -0.5289    1.8773    0.9072 H   0  0  0  0  0  0  0  0  0  0  0  0
   -1.0205   -0.3814    0.0098 H   0  0  0  0  0  0  0  0  0  0  0  0
    0.5123   -0.3556   -0.8948 H   0  0  0  0  0  0  0  0  0  0  0  0
    0.2319   -0.1594    2.1383 H   0  0  0  0  0  0  0  0  0  0  0  0
    0.7568   -1.6008    1.2356 H   0  0  0  0  0  0  0  0  0  0  0  0
    2.7046   -0.3424    2.1137 H   0  0  0  0  0  0  0  0  0  0  0  0
    2.6876   -0.3328    0.3339 H   0  0  0  0  0  0  0  0  0  0  0  0
    4.4109    1.7517    2.2254 O   0  5  0  0  0  0  0  0  0  0  0  0
  1  2  1  0  0  0  0
  1 32  1  0  0  0  0
  1 33  1  0  0  0  0
  1 34  1  0  0  0  0
  2  7  2  0  0  0  0
  2  3  1  0  0  0  0
  3  4  2  0  0  0  0
  3 35  1  0  0  0  0
  4  5  1  0  0  0  0
  4 36  1  0  0  0  0
  5  6  2  0  0  0  0
  5  8  1  0  0  0  0
  6  7  1  0  0  0  0
  6 37  1  0  0  0  0
  7 38  1  0  0  0  0
  8 12  1  0  0  0  0
  8  9  2  0  0  0  0
  9 10  1  0  0  0  0
  9 39  1  0  0  0  0
 10 11  1  0  0  0  0
 11 12  2  0  0  0  0
 11 19  1  0  0  0  0
 12 13  1  0  0  0  0
 13 14  2  0  0  0  0
 13 15  1  0  0  0  0
 15 16  1  0  0  0  0
 16 17  1  0  0  0  0
 16 18  1  0  0  0  0
 16 40  1  0  0  0  0
 17 41  1  0  0  0  0
 17 42  1  0  0  0  0
 17 43  1  0  0  0  0
 18 44  1  0  0  0  0
 18 45  1  0  0  0  0
 18 46  1  0  0  0  0
 19 20  1  0  0  0  0
 19 47  1  0  0  0  0
 20 21  2  0  0  0  0
 20 22  1  0  0  0  0
 22 23  1  0  0  0  0
 22 28  1  0  0  0  0
 22 24  1  0  0  0  0
 24 25  1  0  0  0  0
 24 48  1  0  0  0  0
 24 49  1  0  0  0  0
 25 26  1  0  0  0  0
 25 50  1  0  0  0  0
 25 51  1  0  0  0  0
 26 27  1  0  0  0  0
 26 52  1  0  0  0  0
 26 53  1  0  0  0  0
 27 28  1  0  0  0  0
 27 54  1  0  0  0  0
 27 55  1  0  0  0  0
 28 29  1  0  0  0  0
 28 30  1  0  0  0  0
 30 31  2  0  0  0  0
 30 56  1  0  0  0  0
M  CHG  1  56  -1
M  END
$$$$
ZINC03864264
  -OEChem-08230709463D

 56 58  0     1  0  0  0  0  0999 V2000
    0.8837    3.6988    6.1135 C   0  0  0  0  0  0  0  0  0  0  0  0
    1.7526    3.2731    4.9581 C   0  0  0  0  0  0  0  0  0  0  0  0
    2.9818    2.6863    5.2002 C   0  0  0  0  0  0  0  0  0  0  0  0
    3.7818    2.2945    4.1463 C   0  0  0  0  0  0  0  0  0  0  0  0
    3.3491    2.4909    2.8356 C   0  0  0  0  0  0  0  0  0  0  0  0
    2.1116    3.0876    2.5978 C   0  0  0  0  0  0  0  0  0  0  0  0
    1.3178    3.4702    3.6598 C   0  0  0  0  0  0  0  0  0  0  0  0
    4.2040    2.0727    1.6992 C   0  0  0  0  0  0  0  0  0  0  0  0
    5.5133    2.4233    1.6263 C   0  0  0  0  0  0  0  0  0  0  0  0
    6.0508    1.6846    0.0980 S   0  0  0  0  0  0  0  0  0  0  0  0
    4.5725    0.9359   -0.4024 C   0  0  0  0  0  0  0  0  0  0  0  0
    3.6839    1.2638    0.6130 C   0  0  0  0  0  0  0  0  0  0  0  0
    2.2900    0.8206    0.5856 C   0  0  0  0  0  0  0  0  0  0  0  0
    1.9791   -0.2404    1.0931 O   0  0  0  0  0  0  0  0  0  0  0  0
    1.3495    1.5884   -0.0023 O   0  0  0  0  0  0  0  0  0  0  0  0
   -0.0127    1.0858    0.0080 C   0  0  0  0  0  0  0  0  0  0  0  0
   -0.7527    1.5927   -1.2315 C   0  0  0  0  0  0  0  0  0  0  0  0
   -0.7288    1.5792    1.2668 C   0  0  0  0  0  0  0  0  0  0  0  0
    4.3331    0.1874   -1.5437 N   0  0  0  0  0  0  0  0  0  0  0  0
    5.3271   -0.0305   -2.4275 C   0  0  0  0  0  0  0  0  0  0  0  0
    6.4310    0.4286   -2.2239 O   0  0  0  0  0  0  0  0  0  0  0  0
    5.0668   -0.8445   -3.6687 C   0  0  2  0  0  0  0  0  0  0  0  0
    4.2880   -0.3644   -4.2613 H   0  0  0  0  0  0  0  0  0  0  0  0
    4.6114   -2.2499   -3.2707 C   0  0  0  0  0  0  0  0  0  0  0  0
    4.3471   -3.0763   -4.5309 C   0  0  0  0  0  0  0  0  0  0  0  0
    5.6313   -3.1712   -5.3573 C   0  0  0  0  0  0  0  0  0  0  0  0
    6.0866   -1.7657   -5.7552 C   0  0  0  0  0  0  0  0  0  0  0  0
    6.3509   -0.9393   -4.4951 C   0  0  1  0  0  0  0  0  0  0  0  0
    7.1297   -1.4194   -3.9025 H   0  0  0  0  0  0  0  0  0  0  0  0
    6.7994    0.4450   -4.8871 C   0  0  0  0  0  0  0  0  0  0  0  0
    6.1578    1.4085   -4.5410 O   0  0  0  0  0  0  0  0  0  0  0  0
    1.1181    4.7283    6.3844 H   0  0  0  0  0  0  0  0  0  0  0  0
   -0.1650    3.6290    5.8244 H   0  0  0  0  0  0  0  0  0  0  0  0
    1.0694    3.0472    6.9672 H   0  0  0  0  0  0  0  0  0  0  0  0
    3.3161    2.5350    6.2159 H   0  0  0  0  0  0  0  0  0  0  0  0
    4.7414    1.8368    4.3364 H   0  0  0  0  0  0  0  0  0  0  0  0
    1.7730    3.2460    1.5846 H   0  0  0  0  0  0  0  0  0  0  0  0
    0.3571    3.9284    3.4769 H   0  0  0  0  0  0  0  0  0  0  0  0
    6.0891    3.0126    2.3247 H   0  0  0  0  0  0  0  0  0  0  0  0
    0.0021   -0.0041    0.0020 H   0  0  0  0  0  0  0  0  0  0  0  0
   -0.2425    1.2411   -2.1283 H   0  0  0  0  0  0  0  0  0  0  0  0
   -1.7753    1.2154   -1.2238 H   0  0  0  0  0  0  0  0  0  0  0  0
   -0.7675    2.6825   -1.2255 H   0  0  0  0  0  0  0  0  0  0  0  0
   -0.2017    1.2182    2.1499 H   0  0  0  0  0  0  0  0  0  0  0  0
   -0.7436    2.6691    1.2728 H   0  0  0  0  0  0  0  0  0  0  0  0
   -1.7514    1.2020    1.2746 H   0  0  0  0  0  0  0  0  0  0  0  0
    3.4502   -0.1798   -1.7066 H   0  0  0  0  0  0  0  0  0  0  0  0
    5.3902   -2.7299   -2.6781 H   0  0  0  0  0  0  0  0  0  0  0  0
    3.6965   -2.1823   -2.6820 H   0  0  0  0  0  0  0  0  0  0  0  0
    3.5683   -2.5963   -5.1235 H   0  0  0  0  0  0  0  0  0  0  0  0
    4.0227   -4.0776   -4.2474 H   0  0  0  0  0  0  0  0  0  0  0  0
    5.4430   -3.7599   -6.2550 H   0  0  0  0  0  0  0  0  0  0  0  0
    6.4100   -3.6512   -4.7647 H   0  0  0  0  0  0  0  0  0  0  0  0
    5.3078   -1.2857   -6.3478 H   0  0  0  0  0  0  0  0  0  0  0  0
    7.0015   -1.8333   -6.3439 H   0  0  0  0  0  0  0  0  0  0  0  0
    7.9117    0.6075   -5.6206 O   0  5  0  0  0  0  0  0  0  0  0  0
  1  2  1  0  0  0  0
  1 32  1  0  0  0  0
  1 33  1  0  0  0  0
  1 34  1  0  0  0  0
  2  7  2  0  0  0  0
  2  3  1  0  0  0  0
  3  4  2  0  0  0  0
  3 35  1  0  0  0  0
  4  5  1  0  0  0  0
  4 36  1  0  0  0  0
  5  6  2  0  0  0  0
  5  8  1  0  0  0  0
  6  7  1  0  0  0  0
  6 37  1  0  0  0  0
  7 38  1  0  0  0  0
  8 12  1  0  0  0  0
  8  9  2  0  0  0  0
  9 10  1  0  0  0  0
  9 39  1  0  0  0  0
 10 11  1  0  0  0  0
 11 12  2  0  0  0  0
 11 19  1  0  0  0  0
 12 13  1  0  0  0  0
 13 14  2  0  0  0  0
 13 15  1  0  0  0  0
 15 16  1  0  0  0  0
 16 17  1  0  0  0  0
 16 18  1  0  0  0  0
 16 40  1  0  0  0  0
 17 41  1  0  0  0  0
 17 42  1  0  0  0  0
 17 43  1  0  0  0  0
 18 44  1  0  0  0  0
 18 45  1  0  0  0  0
 18 46  1  0  0  0  0
 19 20  1  0  0  0  0
 19 47  1  0  0  0  0
 20 21  2  0  0  0  0
 20 22  1  0  0  0  0
 22 23  1  0  0  0  0
 22 28  1  0  0  0  0
 22 24  1  0  0  0  0
 24 25  1  0  0  0  0
 24 48  1  0  0  0  0
 24 49  1  0  0  0  0
 25 26  1  0  0  0  0
 25 50  1  0  0  0  0
 25 51  1  0  0  0  0
 26 27  1  0  0  0  0
 26 52  1  0  0  0  0
 26 53  1  0  0  0  0
 27 28  1  0  0  0  0
 27 54  1  0  0  0  0
 27 55  1  0  0  0  0
 28 29  1  0  0  0  0
 28 30  1  0  0  0  0
 30 31  2  0  0  0  0
 30 56  1  0  0  0  0
M  CHG  1  56  -1
M  END
$$$$
ZINC03864265
  -OEChem-08230709463D

 56 58  0     1  0  0  0  0  0999 V2000
   12.3674    2.8505   -6.3135 C   0  0  0  0  0  0  0  0  0  0  0  0
   10.9648    2.7274   -5.7764 C   0  0  0  0  0  0  0  0  0  0  0  0
   10.3670    1.4829   -5.6894 C   0  0  0  0  0  0  0  0  0  0  0  0
    9.0830    1.3639   -5.1980 C   0  0  0  0  0  0  0  0  0  0  0  0
    8.3881    2.5012   -4.7886 C   0  0  0  0  0  0  0  0  0  0  0  0
    8.9936    3.7535   -4.8840 C   0  0  0  0  0  0  0  0  0  0  0  0
   10.2802    3.8594   -5.3717 C   0  0  0  0  0  0  0  0  0  0  0  0
    7.0087    2.3801   -4.2598 C   0  0  0  0  0  0  0  0  0  0  0  0
    6.0504    1.6842   -4.9230 C   0  0  0  0  0  0  0  0  0  0  0  0
    4.6208    1.8552   -3.8754 S   0  0  0  0  0  0  0  0  0  0  0  0
    5.2986    2.8209   -2.6087 C   0  0  0  0  0  0  0  0  0  0  0  0
    6.6151    3.0039   -3.0105 C   0  0  0  0  0  0  0  0  0  0  0  0
    7.5597    3.7847   -2.2117 C   0  0  0  0  0  0  0  0  0  0  0  0
    8.2330    3.2374   -1.3590 O   0  0  0  0  0  0  0  0  0  0  0  0
    7.6842    5.1116   -2.4206 O   0  0  0  0  0  0  0  0  0  0  0  0
    8.6407    5.8226   -1.5913 C   0  0  0  0  0  0  0  0  0  0  0  0
   10.0090    5.8219   -2.2759 C   0  0  0  0  0  0  0  0  0  0  0  0
    8.1705    7.2650   -1.3927 C   0  0  0  0  0  0  0  0  0  0  0  0
    4.6746    3.3017   -1.4687 N   0  0  0  0  0  0  0  0  0  0  0  0
    3.3747    3.0252   -1.2445 C   0  0  0  0  0  0  0  0  0  0  0  0
    2.7511    2.3556   -2.0405 O   0  0  0  0  0  0  0  0  0  0  0  0
    2.6961    3.5480   -0.0046 C   0  0  1  0  0  0  0  0  0  0  0  0
    3.2039    3.1603    0.8785 H   0  0  0  0  0  0  0  0  0  0  0  0
    2.7554    5.0768    0.0030 C   0  0  0  0  0  0  0  0  0  0  0  0
    2.0665    5.6077    1.2618 C   0  0  0  0  0  0  0  0  0  0  0  0
    0.6054    5.1539    1.2733 C   0  0  0  0  0  0  0  0  0  0  0  0
    0.5460    3.6251    1.2656 C   0  0  0  0  0  0  0  0  0  0  0  0
    1.2350    3.0943    0.0069 C   0  0  2  0  0  0  0  0  0  0  0  0
    0.7272    3.4820   -0.8762 H   0  0  0  0  0  0  0  0  0  0  0  0
    1.1765    1.5884   -0.0006 C   0  0  0  0  0  0  0  0  0  0  0  0
    2.1986    0.9442   -0.0139 O   0  0  0  0  0  0  0  0  0  0  0  0
   12.3316    2.9933   -7.3935 H   0  0  0  0  0  0  0  0  0  0  0  0
   12.8602    3.7051   -5.8501 H   0  0  0  0  0  0  0  0  0  0  0  0
   12.9248    1.9420   -6.0855 H   0  0  0  0  0  0  0  0  0  0  0  0
   10.9064    0.6026   -6.0065 H   0  0  0  0  0  0  0  0  0  0  0  0
    8.6175    0.3918   -5.1302 H   0  0  0  0  0  0  0  0  0  0  0  0
    8.4585    4.6384   -4.5726 H   0  0  0  0  0  0  0  0  0  0  0  0
   10.7519    4.8284   -5.4419 H   0  0  0  0  0  0  0  0  0  0  0  0
    6.1348    1.1541   -5.8602 H   0  0  0  0  0  0  0  0  0  0  0  0
    8.7189    5.3294   -0.6224 H   0  0  0  0  0  0  0  0  0  0  0  0
   10.3439    4.7943   -2.4173 H   0  0  0  0  0  0  0  0  0  0  0  0
    9.9308    6.3152   -3.2447 H   0  0  0  0  0  0  0  0  0  0  0  0
   10.7270    6.3557   -1.6533 H   0  0  0  0  0  0  0  0  0  0  0  0
    7.1957    7.2655   -0.9050 H   0  0  0  0  0  0  0  0  0  0  0  0
    8.8886    7.7988   -0.7702 H   0  0  0  0  0  0  0  0  0  0  0  0
    8.0923    7.7583   -2.3616 H   0  0  0  0  0  0  0  0  0  0  0  0
    5.1734    3.8372   -0.8320 H   0  0  0  0  0  0  0  0  0  0  0  0
    2.2476    5.4646   -0.8801 H   0  0  0  0  0  0  0  0  0  0  0  0
    3.7964    5.4001   -0.0052 H   0  0  0  0  0  0  0  0  0  0  0  0
    2.1088    6.6968    1.2672 H   0  0  0  0  0  0  0  0  0  0  0  0
    2.5743    5.2199    2.1449 H   0  0  0  0  0  0  0  0  0  0  0  0
    0.0975    5.5417    0.3902 H   0  0  0  0  0  0  0  0  0  0  0  0
    0.1145    5.5321    2.1700 H   0  0  0  0  0  0  0  0  0  0  0  0
   -0.4949    3.3019    1.2738 H   0  0  0  0  0  0  0  0  0  0  0  0
    1.0538    3.2374    2.1487 H   0  0  0  0  0  0  0  0  0  0  0  0
   -0.0110    0.9628    0.0073 O   0  5  0  0  0  0  0  0  0  0  0  0
  1  2  1  0  0  0  0
  1 32  1  0  0  0  0
  1 33  1  0  0  0  0
  1 34  1  0  0  0  0
  2  7  2  0  0  0  0
  2  3  1  0  0  0  0
  3  4  2  0  0  0  0
  3 35  1  0  0  0  0
  4  5  1  0  0  0  0
  4 36  1  0  0  0  0
  5  6  2  0  0  0  0
  5  8  1  0  0  0  0
  6  7  1  0  0  0  0
  6 37  1  0  0  0  0
  7 38  1  0  0  0  0
  8 12  1  0  0  0  0
  8  9  2  0  0  0  0
  9 10  1  0  0  0  0
  9 39  1  0  0  0  0
 10 11  1  0  0  0  0
 11 12  2  0  0  0  0
 11 19  1  0  0  0  0
 12 13  1  0  0  0  0
 13 14  2  0  0  0  0
 13 15  1  0  0  0  0
 15 16  1  0  0  0  0
 16 17  1  0  0  0  0
 16 18  1  0  0  0  0
 16 40  1  0  0  0  0
 17 41  1  0  0  0  0
 17 42  1  0  0  0  0
 17 43  1  0  0  0  0
 18 44  1  0  0  0  0
 18 45  1  0  0  0  0
 18 46  1  0  0  0  0
 19 20  1  0  0  0  0
 19 47  1  0  0  0  0
 20 21  2  0  0  0  0
 20 22  1  0  0  0  0
 22 23  1  0  0  0  0
 22 28  1  0  0  0  0
 22 24  1  0  0  0  0
 24 25  1  0  0  0  0
 24 48  1  0  0  0  0
 24 49  1  0  0  0  0
 25 26  1  0  0  0  0
 25 50  1  0  0  0  0
 25 51  1  0  0  0  0
 26 27  1  0  0  0  0
 26 52  1  0  0  0  0
 26 53  1  0  0  0  0
 27 28  1  0  0  0  0
 27 54  1  0  0  0  0
 27 55  1  0  0  0  0
 28 29  1  0  0  0  0
 28 30  1  0  0  0  0
 30 31  2  0  0  0  0
 30 56  1  0  0  0  0
M  CHG  1  56  -1
M  END
$$$$
ZINC03864266
  -OEChem-08230709463D

 56 58  0     1  0  0  0  0  0999 V2000
    9.5518    3.5756    6.5189 C   0  0  0  0  0  0  0  0  0  0  0  0
    8.3849    3.7392    5.5794 C   0  0  0  0  0  0  0  0  0  0  0  0
    8.5541    3.5145    4.2249 C   0  0  0  0  0  0  0  0  0  0  0  0
    7.4893    3.6627    3.3598 C   0  0  0  0  0  0  0  0  0  0  0  0
    6.2410    4.0398    3.8533 C   0  0  0  0  0  0  0  0  0  0  0  0
    6.0778    4.2701    5.2187 C   0  0  0  0  0  0  0  0  0  0  0  0
    7.1488    4.1140    6.0748 C   0  0  0  0  0  0  0  0  0  0  0  0
    5.0934    4.2012    2.9292 C   0  0  0  0  0  0  0  0  0  0  0  0
    5.1894    4.9449    1.7977 C   0  0  0  0  0  0  0  0  0  0  0  0
    3.5696    4.7994    1.0730 S   0  0  0  0  0  0  0  0  0  0  0  0
    2.8080    3.7906    2.2558 C   0  0  0  0  0  0  0  0  0  0  0  0
    3.8125    3.5718    3.1893 C   0  0  0  0  0  0  0  0  0  0  0  0
    3.5900    2.7466    4.3766 C   0  0  0  0  0  0  0  0  0  0  0  0
    3.8081    1.5504    4.3355 O   0  0  0  0  0  0  0  0  0  0  0  0
    3.1431    3.3120    5.5169 O   0  0  0  0  0  0  0  0  0  0  0  0
    2.9450    2.4325    6.6551 C   0  0  0  0  0  0  0  0  0  0  0  0
    4.2363    2.3573    7.4724 C   0  0  0  0  0  0  0  0  0  0  0  0
    1.8174    2.9799    7.5324 C   0  0  0  0  0  0  0  0  0  0  0  0
    1.5080    3.3110    2.2656 N   0  0  0  0  0  0  0  0  0  0  0  0
    0.6642    3.6307    1.2645 C   0  0  0  0  0  0  0  0  0  0  0  0
    1.0427    4.3381    0.3551 O   0  0  0  0  0  0  0  0  0  0  0  0
   -0.7496    3.1091    1.2752 C   0  0  2  0  0  0  0  0  0  0  0  0
   -1.2598    3.4606    2.1720 H   0  0  0  0  0  0  0  0  0  0  0  0
   -0.7288    1.5792    1.2668 C   0  0  0  0  0  0  0  0  0  0  0  0
   -0.0127    1.0858    0.0080 C   0  0  0  0  0  0  0  0  0  0  0  0
   -0.7527    1.5927   -1.2315 C   0  0  0  0  0  0  0  0  0  0  0  0
   -0.7734    3.1225   -1.2231 C   0  0  0  0  0  0  0  0  0  0  0  0
   -1.4896    3.6159    0.0357 C   0  0  2  0  0  0  0  0  0  0  0  0
   -2.5122    3.2386    0.0434 H   0  0  0  0  0  0  0  0  0  0  0  0
   -1.5100    5.1227    0.0440 C   0  0  0  0  0  0  0  0  0  0  0  0
   -0.9864    5.7291    0.9485 O   0  0  0  0  0  0  0  0  0  0  0  0
   10.0791    4.5250    6.6120 H   0  0  0  0  0  0  0  0  0  0  0  0
    9.1888    3.2640    7.4983 H   0  0  0  0  0  0  0  0  0  0  0  0
   10.2314    2.8195    6.1258 H   0  0  0  0  0  0  0  0  0  0  0  0
    9.5216    3.2228    3.8438 H   0  0  0  0  0  0  0  0  0  0  0  0
    7.6226    3.4874    2.3025 H   0  0  0  0  0  0  0  0  0  0  0  0
    5.1142    4.5664    5.6061 H   0  0  0  0  0  0  0  0  0  0  0  0
    7.0227    4.2884    7.1331 H   0  0  0  0  0  0  0  0  0  0  0  0
    6.0439    5.4899    1.4245 H   0  0  0  0  0  0  0  0  0  0  0  0
    2.6798    1.4358    6.3024 H   0  0  0  0  0  0  0  0  0  0  0  0
    4.0876    1.6971    8.3268 H   0  0  0  0  0  0  0  0  0  0  0  0
    5.0397    1.9674    6.8474 H   0  0  0  0  0  0  0  0  0  0  0  0
    4.5015    3.3540    7.8251 H   0  0  0  0  0  0  0  0  0  0  0  0
    0.8974    3.0334    6.9502 H   0  0  0  0  0  0  0  0  0  0  0  0
    1.6687    2.3196    8.3869 H   0  0  0  0  0  0  0  0  0  0  0  0
    2.0826    3.9765    7.8852 H   0  0  0  0  0  0  0  0  0  0  0  0
    1.2053    2.7452    2.9930 H   0  0  0  0  0  0  0  0  0  0  0  0
   -1.7514    1.2020    1.2746 H   0  0  0  0  0  0  0  0  0  0  0  0
   -0.2017    1.2182    2.1499 H   0  0  0  0  0  0  0  0  0  0  0  0
    0.0021   -0.0041    0.0020 H   0  0  0  0  0  0  0  0  0  0  0  0
    1.0099    1.4631    0.0003 H   0  0  0  0  0  0  0  0  0  0  0  0
   -0.2425    1.2411   -2.1283 H   0  0  0  0  0  0  0  0  0  0  0  0
   -1.7753    1.2154   -1.2238 H   0  0  0  0  0  0  0  0  0  0  0  0
    0.2491    3.4998   -1.2308 H   0  0  0  0  0  0  0  0  0  0  0  0
   -1.3006    3.4836   -2.1062 H   0  0  0  0  0  0  0  0  0  0  0  0
   -2.1099    5.7913   -0.9535 O   0  5  0  0  0  0  0  0  0  0  0  0
  1  2  1  0  0  0  0
  1 32  1  0  0  0  0
  1 33  1  0  0  0  0
  1 34  1  0  0  0  0
  2  7  2  0  0  0  0
  2  3  1  0  0  0  0
  3  4  2  0  0  0  0
  3 35  1  0  0  0  0
  4  5  1  0  0  0  0
  4 36  1  0  0  0  0
  5  6  2  0  0  0  0
  5  8  1  0  0  0  0
  6  7  1  0  0  0  0
  6 37  1  0  0  0  0
  7 38  1  0  0  0  0
  8 12  1  0  0  0  0
  8  9  2  0  0  0  0
  9 10  1  0  0  0  0
  9 39  1  0  0  0  0
 10 11  1  0  0  0  0
 11 12  2  0  0  0  0
 11 19  1  0  0  0  0
 12 13  1  0  0  0  0
 13 14  2  0  0  0  0
 13 15  1  0  0  0  0
 15 16  1  0  0  0  0
 16 17  1  0  0  0  0
 16 18  1  0  0  0  0
 16 40  1  0  0  0  0
 17 41  1  0  0  0  0
 17 42  1  0  0  0  0
 17 43  1  0  0  0  0
 18 44  1  0  0  0  0
 18 45  1  0  0  0  0
 18 46  1  0  0  0  0
 19 20  1  0  0  0  0
 19 47  1  0  0  0  0
 20 21  2  0  0  0  0
 20 22  1  0  0  0  0
 22 23  1  0  0  0  0
 22 28  1  0  0  0  0
 22 24  1  0  0  0  0
 24 25  1  0  0  0  0
 24 48  1  0  0  0  0
 24 49  1  0  0  0  0
 25 26  1  0  0  0  0
 25 50  1  0  0  0  0
 25 51  1  0  0  0  0
 26 27  1  0  0  0  0
 26 52  1  0  0  0  0
 26 53  1  0  0  0  0
 27 28  1  0  0  0  0
 27 54  1  0  0  0  0
 27 55  1  0  0  0  0
 28 29  1  0  0  0  0
 28 30  1  0  0  0  0
 30 31  2  0  0  0  0
 30 56  1  0  0  0  0
M  CHG  1  56  -1
M  END
$$$$
ZINC03864267
  -OEChem-08230709463D

 54 57  0     1  0  0  0  0  0999 V2000
   -6.1100   -2.9902   -2.4726 C   0  0  0  0  0  0  0  0  0  0  0  0
   -5.6762   -1.7955   -1.6209 C   0  0  0  0  0  0  0  0  0  0  0  0
   -4.8866   -2.2933   -0.4086 C   0  0  0  0  0  0  0  0  0  0  0  0
   -4.8393   -0.9136   -2.4148 O   0  0  0  0  0  0  0  0  0  0  0  0
   -4.8729    0.4003   -2.1110 C   0  0  0  0  0  0  0  0  0  0  0  0
   -5.5830    0.7974   -1.2066 O   0  0  0  0  0  0  0  0  0  0  0  0
   -4.0555    1.3475   -2.8690 C   0  0  0  0  0  0  0  0  0  0  0  0
   -4.5599    2.0051   -4.0597 C   0  0  0  0  0  0  0  0  0  0  0  0
   -3.7143    2.8601   -4.6894 C   0  0  0  0  0  0  0  0  0  0  0  0
   -2.2440    2.7944   -3.6873 S   0  0  0  0  0  0  0  0  0  0  0  0
   -2.7603    1.6645   -2.4817 C   0  0  0  0  0  0  0  0  0  0  0  0
   -2.0487    1.1861   -1.3932 N   0  0  0  0  0  0  0  0  0  0  0  0
   -0.7866    1.6062   -1.1758 C   0  0  0  0  0  0  0  0  0  0  0  0
   -0.2738    2.4030   -1.9327 O   0  0  0  0  0  0  0  0  0  0  0  0
   -0.0127    1.0858    0.0080 C   0  0  1  0  0  0  0  0  0  0  0  0
   -0.6624    1.0034    0.8793 H   0  0  0  0  0  0  0  0  0  0  0  0
    0.6269   -0.2965   -0.3258 C   0  0  1  0  0  0  0  0  0  0  0  0
   -0.0373   -1.1580   -0.2568 H   0  0  0  0  0  0  0  0  0  0  0  0
    1.3237   -0.0816   -1.7041 C   0  0  0  0  0  0  0  0  0  0  0  0
    2.5252    0.8406   -1.3950 C   0  0  0  0  0  0  0  0  0  0  0  0
    2.4412    1.0960    0.1409 C   0  0  2  0  0  0  0  0  0  0  0  0
    3.3608    1.4341    0.6186 H   0  0  0  0  0  0  0  0  0  0  0  0
    1.8694   -0.2803    0.6330 C   0  0  0  0  0  0  0  0  0  0  0  0
    1.1888    2.0080    0.3171 C   0  0  2  0  0  0  0  0  0  0  0  0
    1.2214    2.8387   -0.3879 H   0  0  0  0  0  0  0  0  0  0  0  0
    1.1072    2.5208    1.7318 C   0  0  0  0  0  0  0  0  0  0  0  0
    1.9817    2.2552    2.5220 O   0  0  0  0  0  0  0  0  0  0  0  0
   -5.9294    1.7514   -4.5671 C   0  0  0  0  0  0  0  0  0  0  0  0
   -6.3800    0.4436   -4.7415 C   0  0  0  0  0  0  0  0  0  0  0  0
   -7.6580    0.2137   -5.2086 C   0  0  0  0  0  0  0  0  0  0  0  0
   -8.4874    1.2777   -5.5146 C   0  0  0  0  0  0  0  0  0  0  0  0
   -8.0438    2.5775   -5.3489 C   0  0  0  0  0  0  0  0  0  0  0  0
   -6.7699    2.8198   -4.8771 C   0  0  0  0  0  0  0  0  0  0  0  0
   -5.2283   -3.5340   -2.8116 H   0  0  0  0  0  0  0  0  0  0  0  0
   -6.7383   -3.6522   -1.8766 H   0  0  0  0  0  0  0  0  0  0  0  0
   -6.6726   -2.6355   -3.3362 H   0  0  0  0  0  0  0  0  0  0  0  0
   -6.5579   -1.2517   -1.2818 H   0  0  0  0  0  0  0  0  0  0  0  0
   -5.5148   -2.9552    0.1873 H   0  0  0  0  0  0  0  0  0  0  0  0
   -4.0048   -2.8371   -0.7477 H   0  0  0  0  0  0  0  0  0  0  0  0
   -4.5775   -1.4421    0.1981 H   0  0  0  0  0  0  0  0  0  0  0  0
   -3.8909    3.4406   -5.5828 H   0  0  0  0  0  0  0  0  0  0  0  0
   -2.4588    0.5488   -0.7878 H   0  0  0  0  0  0  0  0  0  0  0  0
    1.6691   -1.0333   -2.1077 H   0  0  0  0  0  0  0  0  0  0  0  0
    0.6415    0.4017   -2.4035 H   0  0  0  0  0  0  0  0  0  0  0  0
    3.4613    0.3422   -1.6467 H   0  0  0  0  0  0  0  0  0  0  0  0
    2.4344    1.7791   -1.9418 H   0  0  0  0  0  0  0  0  0  0  0  0
    1.5757   -0.2493    1.6822 H   0  0  0  0  0  0  0  0  0  0  0  0
    2.5539   -1.1037    0.4291 H   0  0  0  0  0  0  0  0  0  0  0  0
   -5.7318   -0.3878   -4.5072 H   0  0  0  0  0  0  0  0  0  0  0  0
   -8.0098   -0.7990   -5.3399 H   0  0  0  0  0  0  0  0  0  0  0  0
   -9.4851    1.0929   -5.8845 H   0  0  0  0  0  0  0  0  0  0  0  0
   -8.6959    3.4043   -5.5891 H   0  0  0  0  0  0  0  0  0  0  0  0
   -6.4247    3.8350   -4.7478 H   0  0  0  0  0  0  0  0  0  0  0  0
    0.0630    3.2727    2.1139 O   0  5  0  0  0  0  0  0  0  0  0  0
  1  2  1  0  0  0  0
  1 34  1  0  0  0  0
  1 35  1  0  0  0  0
  1 36  1  0  0  0  0
  2  3  1  0  0  0  0
  2  4  1  0  0  0  0
  2 37  1  0  0  0  0
  3 38  1  0  0  0  0
  3 39  1  0  0  0  0
  3 40  1  0  0  0  0
  4  5  1  0  0  0  0
  5  6  2  0  0  0  0
  5  7  1  0  0  0  0
  7 11  2  0  0  0  0
  7  8  1  0  0  0  0
  8  9  2  0  0  0  0
  8 28  1  0  0  0  0
  9 10  1  0  0  0  0
  9 41  1  0  0  0  0
 10 11  1  0  0  0  0
 11 12  1  0  0  0  0
 12 13  1  0  0  0  0
 12 42  1  0  0  0  0
 13 14  2  0  0  0  0
 13 15  1  0  0  0  0
 15 16  1  0  0  0  0
 15 24  1  0  0  0  0
 15 17  1  0  0  0  0
 17 18  1  0  0  0  0
 17 23  1  0  0  0  0
 17 19  1  0  0  0  0
 19 20  1  0  0  0  0
 19 43  1  0  0  0  0
 19 44  1  0  0  0  0
 20 21  1  0  0  0  0
 20 45  1  0  0  0  0
 20 46  1  0  0  0  0
 21 22  1  0  0  0  0
 21 23  1  0  0  0  0
 21 24  1  0  0  0  0
 23 47  1  0  0  0  0
 23 48  1  0  0  0  0
 24 25  1  0  0  0  0
 24 26  1  0  0  0  0
 26 27  2  0  0  0  0
 26 54  1  0  0  0  0
 28 33  2  0  0  0  0
 28 29  1  0  0  0  0
 29 30  2  0  0  0  0
 29 49  1  0  0  0  0
 30 31  1  0  0  0  0
 30 50  1  0  0  0  0
 31 32  2  0  0  0  0
 31 51  1  0  0  0  0
 32 33  1  0  0  0  0
 32 52  1  0  0  0  0
 33 53  1  0  0  0  0
M  CHG  1  54  -1
M  END
$$$$
ZINC03864276
  -OEChem-08230709463D

 53 55  0     1  0  0  0  0  0999 V2000
    6.3418   -5.7034   -0.0969 C   0  0  0  0  0  0  0  0  0  0  0  0
    6.3889   -4.2426    0.3557 C   0  0  0  0  0  0  0  0  0  0  0  0
    6.4460   -3.3301   -0.8710 C   0  0  0  0  0  0  0  0  0  0  0  0
    5.1997   -3.9375    1.1309 O   0  0  0  0  0  0  0  0  0  0  0  0
    5.3188   -2.9970    2.0906 C   0  0  0  0  0  0  0  0  0  0  0  0
    6.3883   -2.4471    2.2740 O   0  0  0  0  0  0  0  0  0  0  0  0
    4.1618   -2.6384    2.9109 C   0  0  0  0  0  0  0  0  0  0  0  0
    3.8688   -3.3249    4.1548 C   0  0  0  0  0  0  0  0  0  0  0  0
    2.7703   -2.9109    4.8364 C   0  0  0  0  0  0  0  0  0  0  0  0
    2.1285   -1.5973    3.8200 S   0  0  0  0  0  0  0  0  0  0  0  0
    3.2905   -1.6238    2.5372 C   0  0  0  0  0  0  0  0  0  0  0  0
    3.3423   -0.8201    1.4096 N   0  0  0  0  0  0  0  0  0  0  0  0
    2.4003    0.1229    1.2103 C   0  0  0  0  0  0  0  0  0  0  0  0
    1.5073    0.2682    2.0180 O   0  0  0  0  0  0  0  0  0  0  0  0
    2.4566    0.9969   -0.0160 C   0  0  2  0  0  0  0  0  0  0  0  0
    2.3989    0.3743   -0.9089 H   0  0  0  0  0  0  0  0  0  0  0  0
    3.7711    1.7799   -0.0244 C   0  0  0  0  0  0  0  0  0  0  0  0
    3.8521    2.6538    1.2288 C   0  0  0  0  0  0  0  0  0  0  0  0
    2.6759    3.6321    1.2453 C   0  0  0  0  0  0  0  0  0  0  0  0
    1.3614    2.8492    1.2537 C   0  0  0  0  0  0  0  0  0  0  0  0
    1.2804    1.9752    0.0004 C   0  0  2  0  0  0  0  0  0  0  0  0
    1.3211    2.6074   -0.8866 H   0  0  0  0  0  0  0  0  0  0  0  0
   -0.0143    1.2041    0.0087 C   0  0  0  0  0  0  0  0  0  0  0  0
    0.0021   -0.0041    0.0020 O   0  0  0  0  0  0  0  0  0  0  0  0
    4.7264   -4.4249    4.6566 C   0  0  0  0  0  0  0  0  0  0  0  0
    5.0702   -5.4831    3.8165 C   0  0  0  0  0  0  0  0  0  0  0  0
    5.8725   -6.5021    4.2880 C   0  0  0  0  0  0  0  0  0  0  0  0
    6.3275   -6.4799    5.5942 C   0  0  0  0  0  0  0  0  0  0  0  0
    5.9853   -5.4352    6.4339 C   0  0  0  0  0  0  0  0  0  0  0  0
    5.1876   -4.4082    5.9723 C   0  0  0  0  0  0  0  0  0  0  0  0
    5.4562   -5.8649   -0.7115 H   0  0  0  0  0  0  0  0  0  0  0  0
    7.2346   -5.9324   -0.6789 H   0  0  0  0  0  0  0  0  0  0  0  0
    6.3012   -6.3534    0.7770 H   0  0  0  0  0  0  0  0  0  0  0  0
    7.2746   -4.0810    0.9703 H   0  0  0  0  0  0  0  0  0  0  0  0
    5.5604   -3.4917   -1.4856 H   0  0  0  0  0  0  0  0  0  0  0  0
    6.4796   -2.2894   -0.5486 H   0  0  0  0  0  0  0  0  0  0  0  0
    7.3388   -3.5591   -1.4530 H   0  0  0  0  0  0  0  0  0  0  0  0
    2.3814   -3.2855    5.7717 H   0  0  0  0  0  0  0  0  0  0  0  0
    4.0565   -0.9363    0.7636 H   0  0  0  0  0  0  0  0  0  0  0  0
    4.6091    1.0829   -0.0361 H   0  0  0  0  0  0  0  0  0  0  0  0
    3.8118    2.4121   -0.9114 H   0  0  0  0  0  0  0  0  0  0  0  0
    3.8114    2.0217    2.1159 H   0  0  0  0  0  0  0  0  0  0  0  0
    4.7886    3.2116    1.2229 H   0  0  0  0  0  0  0  0  0  0  0  0
    2.7336    4.2547    2.1382 H   0  0  0  0  0  0  0  0  0  0  0  0
    2.7166    4.2643    0.3583 H   0  0  0  0  0  0  0  0  0  0  0  0
    0.5235    3.5461    1.2654 H   0  0  0  0  0  0  0  0  0  0  0  0
    1.3207    2.2170    2.1407 H   0  0  0  0  0  0  0  0  0  0  0  0
    4.7125   -5.5034    2.7977 H   0  0  0  0  0  0  0  0  0  0  0  0
    6.1426   -7.3205    3.6370 H   0  0  0  0  0  0  0  0  0  0  0  0
    6.9520   -7.2815    5.9599 H   0  0  0  0  0  0  0  0  0  0  0  0
    6.3434   -5.4232    7.4528 H   0  0  0  0  0  0  0  0  0  0  0  0
    4.9213   -3.5929    6.6286 H   0  0  0  0  0  0  0  0  0  0  0  0
   -1.1857    1.8593    0.0178 O   0  5  0  0  0  0  0  0  0  0  0  0
  1  2  1  0  0  0  0
  1 31  1  0  0  0  0
  1 32  1  0  0  0  0
  1 33  1  0  0  0  0
  2  3  1  0  0  0  0
  2  4  1  0  0  0  0
  2 34  1  0  0  0  0
  3 35  1  0  0  0  0
  3 36  1  0  0  0  0
  3 37  1  0  0  0  0
  4  5  1  0  0  0  0
  5  6  2  0  0  0  0
  5  7  1  0  0  0  0
  7 11  2  0  0  0  0
  7  8  1  0  0  0  0
  8  9  2  0  0  0  0
  8 25  1  0  0  0  0
  9 10  1  0  0  0  0
  9 38  1  0  0  0  0
 10 11  1  0  0  0  0
 11 12  1  0  0  0  0
 12 13  1  0  0  0  0
 12 39  1  0  0  0  0
 13 14  2  0  0  0  0
 13 15  1  0  0  0  0
 15 16  1  0  0  0  0
 15 21  1  0  0  0  0
 15 17  1  0  0  0  0
 17 18  1  0  0  0  0
 17 40  1  0  0  0  0
 17 41  1  0  0  0  0
 18 19  1  0  0  0  0
 18 42  1  0  0  0  0
 18 43  1  0  0  0  0
 19 20  1  0  0  0  0
 19 44  1  0  0  0  0
 19 45  1  0  0  0  0
 20 21  1  0  0  0  0
 20 46  1  0  0  0  0
 20 47  1  0  0  0  0
 21 22  1  0  0  0  0
 21 23  1  0  0  0  0
 23 24  2  0  0  0  0
 23 53  1  0  0  0  0
 25 30  2  0  0  0  0
 25 26  1  0  0  0  0
 26 27  2  0  0  0  0
 26 48  1  0  0  0  0
 27 28  1  0  0  0  0
 27 49  1  0  0  0  0
 28 29  2  0  0  0  0
 28 50  1  0  0  0  0
 29 30  1  0  0  0  0
 29 51  1  0  0  0  0
 30 52  1  0  0  0  0
M  CHG  1  53  -1
M  END
$$$$
ZINC03864331
  -OEChem-08230709463D

 56 58  0     1  0  0  0  0  0999 V2000
   -5.4079    5.5292   -5.2106 C   0  0  0  0  0  0  0  0  0  0  0  0
   -5.0751    4.0577   -5.4652 C   0  0  0  0  0  0  0  0  0  0  0  0
   -5.3276    3.2888   -4.2597 O   0  0  0  0  0  0  0  0  0  0  0  0
   -5.0829    1.9636   -4.3162 C   0  0  0  0  0  0  0  0  0  0  0  0
   -4.6696    1.4648   -5.3458 O   0  0  0  0  0  0  0  0  0  0  0  0
   -5.3147    1.1253   -3.1381 C   0  0  0  0  0  0  0  0  0  0  0  0
   -6.6192    0.4917   -2.9103 C   0  0  0  0  0  0  0  0  0  0  0  0
   -6.6922   -0.2068   -1.7633 C   0  0  0  0  0  0  0  0  0  0  0  0
   -5.0743   -0.1097   -1.0416 S   0  0  0  0  0  0  0  0  0  0  0  0
   -4.3107    0.9110   -2.2121 C   0  0  0  0  0  0  0  0  0  0  0  0
   -3.0103    1.3907   -2.2219 N   0  0  0  0  0  0  0  0  0  0  0  0
   -2.1665    1.0710   -1.2208 C   0  0  0  0  0  0  0  0  0  0  0  0
   -2.5450    0.3636   -0.3114 O   0  0  0  0  0  0  0  0  0  0  0  0
   -0.7527    1.5927   -1.2315 C   0  0  2  0  0  0  0  0  0  0  0  0
   -0.7675    2.6825   -1.2255 H   0  0  0  0  0  0  0  0  0  0  0  0
   -0.0366    1.0992   -2.4903 C   0  0  0  0  0  0  0  0  0  0  0  0
    1.3988    1.6288   -2.5012 C   0  0  0  0  0  0  0  0  0  0  0  0
    2.1388    1.1220   -1.2617 C   0  0  0  0  0  0  0  0  0  0  0  0
    1.4227    1.6154   -0.0028 C   0  0  0  0  0  0  0  0  0  0  0  0
   -0.0127    1.0858    0.0080 C   0  0  1  0  0  0  0  0  0  0  0  0
    0.0021   -0.0041    0.0020 H   0  0  0  0  0  0  0  0  0  0  0  0
   -0.7181    1.5718    1.2479 C   0  0  0  0  0  0  0  0  0  0  0  0
   -1.7108    2.2536    1.1502 O   0  0  0  0  0  0  0  0  0  0  0  0
   -7.8786   -0.9167   -1.1745 C   0  0  0  0  0  0  0  0  0  0  0  0
   -8.7611    0.1536   -0.5073 C   0  0  0  0  0  0  0  0  0  0  0  0
   -9.0656    1.2391   -1.5461 C   0  0  0  0  0  0  0  0  0  0  0  0
   -9.8329    0.5379   -2.6476 C   0  0  0  0  0  0  0  0  0  0  0  0
   -8.9494   -0.1745   -3.6564 C   0  0  0  0  0  0  0  0  0  0  0  0
   -7.6941    0.6217   -3.9885 C   0  0  0  0  0  0  0  0  0  0  0  0
   -6.4582    5.6216   -4.9340 H   0  0  0  0  0  0  0  0  0  0  0  0
   -4.7843    5.9079   -4.4008 H   0  0  0  0  0  0  0  0  0  0  0  0
   -5.2184    6.1065   -6.1155 H   0  0  0  0  0  0  0  0  0  0  0  0
   -4.0248    3.9654   -5.7418 H   0  0  0  0  0  0  0  0  0  0  0  0
   -5.6988    3.6790   -6.2750 H   0  0  0  0  0  0  0  0  0  0  0  0
   -2.7076    1.9566   -2.9493 H   0  0  0  0  0  0  0  0  0  0  0  0
   -0.5637    1.4603   -3.3734 H   0  0  0  0  0  0  0  0  0  0  0  0
   -0.0218    0.0093   -2.4963 H   0  0  0  0  0  0  0  0  0  0  0  0
    1.3840    2.7187   -2.4952 H   0  0  0  0  0  0  0  0  0  0  0  0
    1.9090    1.2773   -3.3980 H   0  0  0  0  0  0  0  0  0  0  0  0
    3.1614    1.4993   -1.2694 H   0  0  0  0  0  0  0  0  0  0  0  0
    2.1536    0.0321   -1.2676 H   0  0  0  0  0  0  0  0  0  0  0  0
    1.4079    2.7053    0.0031 H   0  0  0  0  0  0  0  0  0  0  0  0
    1.9499    1.2543    0.8802 H   0  0  0  0  0  0  0  0  0  0  0  0
   -7.5466   -1.6410   -0.4306 H   0  0  0  0  0  0  0  0  0  0  0  0
   -8.4381   -1.4214   -1.9621 H   0  0  0  0  0  0  0  0  0  0  0  0
   -8.2313    0.5922    0.3383 H   0  0  0  0  0  0  0  0  0  0  0  0
   -9.6917   -0.2980   -0.1638 H   0  0  0  0  0  0  0  0  0  0  0  0
   -8.1384    1.6562   -1.9388 H   0  0  0  0  0  0  0  0  0  0  0  0
   -9.6755    2.0269   -1.1040 H   0  0  0  0  0  0  0  0  0  0  0  0
  -10.4368    1.2765   -3.1749 H   0  0  0  0  0  0  0  0  0  0  0  0
  -10.5019   -0.1934   -2.1939 H   0  0  0  0  0  0  0  0  0  0  0  0
   -9.5180   -0.3362   -4.5722 H   0  0  0  0  0  0  0  0  0  0  0  0
   -8.6567   -1.1421   -3.2487 H   0  0  0  0  0  0  0  0  0  0  0  0
   -7.9610    1.6730   -4.0958 H   0  0  0  0  0  0  0  0  0  0  0  0
   -7.2899    0.2622   -4.9349 H   0  0  0  0  0  0  0  0  0  0  0  0
   -0.2435    1.2473    2.4608 O   0  5  0  0  0  0  0  0  0  0  0  0
  1  2  1  0  0  0  0
  1 30  1  0  0  0  0
  1 31  1  0  0  0  0
  1 32  1  0  0  0  0
  2  3  1  0  0  0  0
  2 33  1  0  0  0  0
  2 34  1  0  0  0  0
  3  4  1  0  0  0  0
  4  5  2  0  0  0  0
  4  6  1  0  0  0  0
  6 10  2  0  0  0  0
  6  7  1  0  0  0  0
  7 29  1  0  0  0  0
  7  8  2  0  0  0  0
  8  9  1  0  0  0  0
  8 24  1  0  0  0  0
  9 10  1  0  0  0  0
 10 11  1  0  0  0  0
 11 12  1  0  0  0  0
 11 35  1  0  0  0  0
 12 13  2  0  0  0  0
 12 14  1  0  0  0  0
 14 15  1  0  0  0  0
 14 20  1  0  0  0  0
 14 16  1  0  0  0  0
 16 17  1  0  0  0  0
 16 36  1  0  0  0  0
 16 37  1  0  0  0  0
 17 18  1  0  0  0  0
 17 38  1  0  0  0  0
 17 39  1  0  0  0  0
 18 19  1  0  0  0  0
 18 40  1  0  0  0  0
 18 41  1  0  0  0  0
 19 20  1  0  0  0  0
 19 42  1  0  0  0  0
 19 43  1  0  0  0  0
 20 21  1  0  0  0  0
 20 22  1  0  0  0  0
 22 23  2  0  0  0  0
 22 56  1  0  0  0  0
 24 25  1  0  0  0  0
 24 44  1  0  0  0  0
 24 45  1  0  0  0  0
 25 26  1  0  0  0  0
 25 46  1  0  0  0  0
 25 47  1  0  0  0  0
 26 27  1  0  0  0  0
 26 48  1  0  0  0  0
 26 49  1  0  0  0  0
 27 28  1  0  0  0  0
 27 50  1  0  0  0  0
 27 51  1  0  0  0  0
 28 29  1  0  0  0  0
 28 52  1  0  0  0  0
 28 53  1  0  0  0  0
 29 54  1  0  0  0  0
 29 55  1  0  0  0  0
M  CHG  1  56  -1
M  END
$$$$
ZINC03864332
  -OEChem-08230709463D

 56 58  0     1  0  0  0  0  0999 V2000
    8.8188   -1.9018   -2.0437 C   0  0  0  0  0  0  0  0  0  0  0  0
    7.5859   -2.7111   -1.6365 C   0  0  0  0  0  0  0  0  0  0  0  0
    6.4562   -2.3197   -2.4605 O   0  0  0  0  0  0  0  0  0  0  0  0
    5.2832   -2.9435   -2.2277 C   0  0  0  0  0  0  0  0  0  0  0  0
    5.2073   -3.7916   -1.3590 O   0  0  0  0  0  0  0  0  0  0  0  0
    4.1010   -2.5996   -3.0205 C   0  0  0  0  0  0  0  0  0  0  0  0
    3.7963   -3.3139   -4.2669 C   0  0  0  0  0  0  0  0  0  0  0  0
    2.7077   -2.8536   -4.9060 C   0  0  0  0  0  0  0  0  0  0  0  0
    2.0553   -1.5670   -3.8729 S   0  0  0  0  0  0  0  0  0  0  0  0
    3.2413   -1.5964   -2.6131 C   0  0  0  0  0  0  0  0  0  0  0  0
    3.3147   -0.8046   -1.4777 N   0  0  0  0  0  0  0  0  0  0  0  0
    2.3768    0.1362   -1.2504 C   0  0  0  0  0  0  0  0  0  0  0  0
    1.4686    0.2900   -2.0393 O   0  0  0  0  0  0  0  0  0  0  0  0
    2.4566    0.9969   -0.0160 C   0  0  1  0  0  0  0  0  0  0  0  0
    2.4159    0.3648    0.8710 H   0  0  0  0  0  0  0  0  0  0  0  0
    3.7711    1.7799   -0.0244 C   0  0  0  0  0  0  0  0  0  0  0  0
    3.8521    2.6538    1.2288 C   0  0  0  0  0  0  0  0  0  0  0  0
    2.6759    3.6321    1.2453 C   0  0  0  0  0  0  0  0  0  0  0  0
    1.3614    2.8492    1.2537 C   0  0  0  0  0  0  0  0  0  0  0  0
    1.2804    1.9752    0.0004 C   0  0  2  0  0  0  0  0  0  0  0  0
    1.3211    2.6074   -0.8866 H   0  0  0  0  0  0  0  0  0  0  0  0
   -0.0143    1.2041    0.0087 C   0  0  0  0  0  0  0  0  0  0  0  0
    0.0021   -0.0041    0.0020 O   0  0  0  0  0  0  0  0  0  0  0  0
    2.1696   -3.2575   -6.2502 C   0  0  0  0  0  0  0  0  0  0  0  0
    3.0139   -2.5257   -7.3089 C   0  0  0  0  0  0  0  0  0  0  0  0
    4.4919   -2.8358   -7.0424 C   0  0  0  0  0  0  0  0  0  0  0  0
    4.6258   -4.3342   -7.2117 C   0  0  0  0  0  0  0  0  0  0  0  0
    4.2378   -5.1319   -5.9788 C   0  0  0  0  0  0  0  0  0  0  0  0
    4.7033   -4.4699   -4.6883 C   0  0  0  0  0  0  0  0  0  0  0  0
    9.0496   -2.0938   -3.0915 H   0  0  0  0  0  0  0  0  0  0  0  0
    8.6183   -0.8395   -1.9045 H   0  0  0  0  0  0  0  0  0  0  0  0
    9.6668   -2.1956   -1.4251 H   0  0  0  0  0  0  0  0  0  0  0  0
    7.3551   -2.5191   -0.5887 H   0  0  0  0  0  0  0  0  0  0  0  0
    7.7864   -3.7734   -1.7757 H   0  0  0  0  0  0  0  0  0  0  0  0
    4.0412   -0.9277   -0.8468 H   0  0  0  0  0  0  0  0  0  0  0  0
    4.6091    1.0829   -0.0361 H   0  0  0  0  0  0  0  0  0  0  0  0
    3.8118    2.4121   -0.9114 H   0  0  0  0  0  0  0  0  0  0  0  0
    3.8114    2.0217    2.1159 H   0  0  0  0  0  0  0  0  0  0  0  0
    4.7886    3.2116    1.2229 H   0  0  0  0  0  0  0  0  0  0  0  0
    2.7336    4.2547    2.1382 H   0  0  0  0  0  0  0  0  0  0  0  0
    2.7166    4.2643    0.3583 H   0  0  0  0  0  0  0  0  0  0  0  0
    0.5235    3.5461    1.2654 H   0  0  0  0  0  0  0  0  0  0  0  0
    1.3207    2.2170    2.1407 H   0  0  0  0  0  0  0  0  0  0  0  0
    2.2630   -4.3357   -6.3798 H   0  0  0  0  0  0  0  0  0  0  0  0
    1.1245   -2.9603   -6.3372 H   0  0  0  0  0  0  0  0  0  0  0  0
    2.8447   -1.4514   -7.2358 H   0  0  0  0  0  0  0  0  0  0  0  0
    2.7389   -2.8742   -8.3044 H   0  0  0  0  0  0  0  0  0  0  0  0
    4.7611   -2.5454   -6.0269 H   0  0  0  0  0  0  0  0  0  0  0  0
    5.1223   -2.3168   -7.7644 H   0  0  0  0  0  0  0  0  0  0  0  0
    5.6613   -4.5642   -7.4626 H   0  0  0  0  0  0  0  0  0  0  0  0
    3.9910   -4.6460   -8.0411 H   0  0  0  0  0  0  0  0  0  0  0  0
    4.6825   -6.1247   -6.0465 H   0  0  0  0  0  0  0  0  0  0  0  0
    3.1528   -5.2326   -5.9524 H   0  0  0  0  0  0  0  0  0  0  0  0
    5.7152   -4.0907   -4.8310 H   0  0  0  0  0  0  0  0  0  0  0  0
    4.7153   -5.2167   -3.8944 H   0  0  0  0  0  0  0  0  0  0  0  0
   -1.1857    1.8593    0.0178 O   0  5  0  0  0  0  0  0  0  0  0  0
  1  2  1  0  0  0  0
  1 30  1  0  0  0  0
  1 31  1  0  0  0  0
  1 32  1  0  0  0  0
  2  3  1  0  0  0  0
  2 33  1  0  0  0  0
  2 34  1  0  0  0  0
  3  4  1  0  0  0  0
  4  5  2  0  0  0  0
  4  6  1  0  0  0  0
  6 10  2  0  0  0  0
  6  7  1  0  0  0  0
  7 29  1  0  0  0  0
  7  8  2  0  0  0  0
  8  9  1  0  0  0  0
  8 24  1  0  0  0  0
  9 10  1  0  0  0  0
 10 11  1  0  0  0  0
 11 12  1  0  0  0  0
 11 35  1  0  0  0  0
 12 13  2  0  0  0  0
 12 14  1  0  0  0  0
 14 15  1  0  0  0  0
 14 20  1  0  0  0  0
 14 16  1  0  0  0  0
 16 17  1  0  0  0  0
 16 36  1  0  0  0  0
 16 37  1  0  0  0  0
 17 18  1  0  0  0  0
 17 38  1  0  0  0  0
 17 39  1  0  0  0  0
 18 19  1  0  0  0  0
 18 40  1  0  0  0  0
 18 41  1  0  0  0  0
 19 20  1  0  0  0  0
 19 42  1  0  0  0  0
 19 43  1  0  0  0  0
 20 21  1  0  0  0  0
 20 22  1  0  0  0  0
 22 23  2  0  0  0  0
 22 56  1  0  0  0  0
 24 25  1  0  0  0  0
 24 44  1  0  0  0  0
 24 45  1  0  0  0  0
 25 26  1  0  0  0  0
 25 46  1  0  0  0  0
 25 47  1  0  0  0  0
 26 27  1  0  0  0  0
 26 48  1  0  0  0  0
 26 49  1  0  0  0  0
 27 28  1  0  0  0  0
 27 50  1  0  0  0  0
 27 51  1  0  0  0  0
 28 29  1  0  0  0  0
 28 52  1  0  0  0  0
 28 53  1  0  0  0  0
 29 54  1  0  0  0  0
 29 55  1  0  0  0  0
M  CHG  1  56  -1
M  END
$$$$
ZINC03864334
  -OEChem-08230709463D

 54 56  0     1  0  0  0  0  0999 V2000
    2.1988    1.0094    1.1682 C   0  0  0  0  0  0  0  0  0  0  0  0
    1.4227    1.6154   -0.0028 C   0  0  0  0  0  0  0  0  0  0  0  0
   -0.0127    1.0858    0.0080 C   0  0  2  0  0  0  0  0  0  0  0  0
    0.0021   -0.0041    0.0020 H   0  0  0  0  0  0  0  0  0  0  0  0
   -0.7527    1.5927   -1.2315 C   0  0  0  0  0  0  0  0  0  0  0  0
   -0.6923    1.5541    1.2026 O   0  0  0  0  0  0  0  0  0  0  0  0
   -1.6594    0.7609    1.7076 C   0  0  0  0  0  0  0  0  0  0  0  0
   -1.9269   -0.2936    1.1636 O   0  0  0  0  0  0  0  0  0  0  0  0
   -2.3873    1.1694    2.9108 C   0  0  0  0  0  0  0  0  0  0  0  0
   -3.6021    1.9627    2.8244 C   0  0  0  0  0  0  0  0  0  0  0  0
   -4.1758    2.2670    4.0084 C   0  0  0  0  0  0  0  0  0  0  0  0
   -3.1231    1.5284    5.2252 S   0  0  0  0  0  0  0  0  0  0  0  0
   -1.9396    0.8183    4.1777 C   0  0  0  0  0  0  0  0  0  0  0  0
   -0.8186    0.0789    4.5208 N   0  0  0  0  0  0  0  0  0  0  0  0
   -0.5421   -0.1635    5.8174 C   0  0  0  0  0  0  0  0  0  0  0  0
   -1.2742    0.2655    6.6840 O   0  0  0  0  0  0  0  0  0  0  0  0
    0.6768   -0.9674    6.1905 C   0  0  2  0  0  0  0  0  0  0  0  0
    1.5718   -0.4715    5.8148 H   0  0  0  0  0  0  0  0  0  0  0  0
    0.5707   -2.3710    5.5903 C   0  0  0  0  0  0  0  0  0  0  0  0
    1.6340   -3.2605    6.1648 C   0  0  0  0  0  0  0  0  0  0  0  0
    2.2936   -2.9967    7.2469 C   0  0  0  0  0  0  0  0  0  0  0  0
    2.0942   -1.7596    8.0727 C   0  0  0  0  0  0  0  0  0  0  0  0
    0.7615   -1.0974    7.7166 C   0  0  1  0  0  0  0  0  0  0  0  0
   -0.0619   -1.7134    8.0781 H   0  0  0  0  0  0  0  0  0  0  0  0
    0.6858    0.2696    8.3464 C   0  0  0  0  0  0  0  0  0  0  0  0
    0.5754    1.2505    7.6497 O   0  0  0  0  0  0  0  0  0  0  0  0
   -5.4256    3.0624    4.2286 C   0  0  0  0  0  0  0  0  0  0  0  0
   -5.7568    3.8107    2.9261 C   0  0  0  0  0  0  0  0  0  0  0  0
   -5.6750    2.8199    1.7612 C   0  0  0  0  0  0  0  0  0  0  0  0
   -4.2171    2.4304    1.5111 C   0  0  0  0  0  0  0  0  0  0  0  0
    1.7165    1.2860    2.1057 H   0  0  0  0  0  0  0  0  0  0  0  0
    2.2113   -0.0764    1.0727 H   0  0  0  0  0  0  0  0  0  0  0  0
    3.2213    1.3866    1.1604 H   0  0  0  0  0  0  0  0  0  0  0  0
    1.9050    1.3387   -0.9404 H   0  0  0  0  0  0  0  0  0  0  0  0
    1.4101    2.7011    0.0927 H   0  0  0  0  0  0  0  0  0  0  0  0
   -0.2425    1.2411   -2.1283 H   0  0  0  0  0  0  0  0  0  0  0  0
   -1.7753    1.2154   -1.2238 H   0  0  0  0  0  0  0  0  0  0  0  0
   -0.7675    2.6825   -1.2255 H   0  0  0  0  0  0  0  0  0  0  0  0
   -0.2331   -0.2642    3.8277 H   0  0  0  0  0  0  0  0  0  0  0  0
   -0.4106   -2.7878    5.8173 H   0  0  0  0  0  0  0  0  0  0  0  0
    0.6945   -2.3119    4.5090 H   0  0  0  0  0  0  0  0  0  0  0  0
    1.8630   -4.1781    5.6432 H   0  0  0  0  0  0  0  0  0  0  0  0
    3.0337   -3.7112    7.5757 H   0  0  0  0  0  0  0  0  0  0  0  0
    2.9080   -1.0609    7.8790 H   0  0  0  0  0  0  0  0  0  0  0  0
    2.0939   -2.0268    9.1294 H   0  0  0  0  0  0  0  0  0  0  0  0
   -6.2434    2.3941    4.4982 H   0  0  0  0  0  0  0  0  0  0  0  0
   -5.2641    3.7867    5.0270 H   0  0  0  0  0  0  0  0  0  0  0  0
   -5.0421    4.6186    2.7694 H   0  0  0  0  0  0  0  0  0  0  0  0
   -6.7647    4.2211    2.9866 H   0  0  0  0  0  0  0  0  0  0  0  0
   -6.0855    3.2819    0.8634 H   0  0  0  0  0  0  0  0  0  0  0  0
   -6.2518    1.9274    2.0038 H   0  0  0  0  0  0  0  0  0  0  0  0
   -3.6671    3.2940    1.1371 H   0  0  0  0  0  0  0  0  0  0  0  0
   -4.1748    1.6231    0.7799 H   0  0  0  0  0  0  0  0  0  0  0  0
    0.7411    0.3974    9.6815 O   0  5  0  0  0  0  0  0  0  0  0  0
  1  2  1  0  0  0  0
  1 31  1  0  0  0  0
  1 32  1  0  0  0  0
  1 33  1  0  0  0  0
  2  3  1  0  0  0  0
  2 34  1  0  0  0  0
  2 35  1  0  0  0  0
  3  4  1  0  0  0  0
  3  5  1  0  0  0  0
  3  6  1  0  0  0  0
  5 36  1  0  0  0  0
  5 37  1  0  0  0  0
  5 38  1  0  0  0  0
  6  7  1  0  0  0  0
  7  8  2  0  0  0  0
  7  9  1  0  0  0  0
  9 13  2  0  0  0  0
  9 10  1  0  0  0  0
 10 30  1  0  0  0  0
 10 11  2  0  0  0  0
 11 12  1  0  0  0  0
 11 27  1  0  0  0  0
 12 13  1  0  0  0  0
 13 14  1  0  0  0  0
 14 15  1  0  0  0  0
 14 39  1  0  0  0  0
 15 16  2  0  0  0  0
 15 17  1  0  0  0  0
 17 18  1  0  0  0  0
 17 23  1  0  0  0  0
 17 19  1  0  0  0  0
 19 20  1  0  0  0  0
 19 40  1  0  0  0  0
 19 41  1  0  0  0  0
 20 21  2  0  0  0  0
 20 42  1  0  0  0  0
 21 22  1  0  0  0  0
 21 43  1  0  0  0  0
 22 23  1  0  0  0  0
 22 44  1  0  0  0  0
 22 45  1  0  0  0  0
 23 24  1  0  0  0  0
 23 25  1  0  0  0  0
 25 26  2  0  0  0  0
 25 54  1  0  0  0  0
 27 28  1  0  0  0  0
 27 46  1  0  0  0  0
 27 47  1  0  0  0  0
 28 29  1  0  0  0  0
 28 48  1  0  0  0  0
 28 49  1  0  0  0  0
 29 30  1  0  0  0  0
 29 50  1  0  0  0  0
 29 51  1  0  0  0  0
 30 52  1  0  0  0  0
 30 53  1  0  0  0  0
M  CHG  1  54  -1
M  END
$$$$
ZINC03866676
  -OEChem-08230709463D

 49 51  0     0  0  0  0  0  0999 V2000
    3.3096    7.7237   -2.3196 C   0  0  0  0  0  0  0  0  0  0  0  0
    3.1781    7.2265   -0.9031 C   0  0  0  0  0  0  0  0  0  0  0  0
    3.4876    8.0650    0.1544 C   0  0  0  0  0  0  0  0  0  0  0  0
    3.3695    7.6188    1.4593 C   0  0  0  0  0  0  0  0  0  0  0  0
    2.9378    6.3350    1.7166 C   0  0  0  0  0  0  0  0  0  0  0  0
    2.6279    5.4788    0.6532 C   0  0  0  0  0  0  0  0  0  0  0  0
    2.7498    5.9386   -0.6639 C   0  0  0  0  0  0  0  0  0  0  0  0
    2.1719    4.1084    0.9176 C   0  0  0  0  0  0  0  0  0  0  0  0
    1.0919    3.6093    0.2523 C   0  0  0  0  0  0  0  0  0  0  0  0
    0.7746    2.1716    0.3355 C   0  0  0  0  0  0  0  0  0  0  0  0
   -0.3206    1.5588    0.8891 C   0  0  0  0  0  0  0  0  0  0  0  0
   -0.4006    0.1848    0.8475 C   0  0  0  0  0  0  0  0  0  0  0  0
    0.6028   -0.5195    0.2624 C   0  0  0  0  0  0  0  0  0  0  0  0
    1.7156    0.7755   -0.2586 S   0  0  0  0  0  0  0  0  0  0  0  0
    0.7646   -2.2633    0.0681 S   0  0  0  0  0  0  0  0  0  0  0  0
    2.1535   -2.5292   -0.0714 O   0  0  0  0  0  0  0  0  0  0  0  0
   -0.0269   -2.8605    1.0860 O   0  0  0  0  0  0  0  0  0  0  0  0
    0.0588   -2.6626   -1.3757 N   0  0  0  0  0  0  0  0  0  0  0  0
   -1.3656   -3.0173   -1.4400 C   0  0  0  0  0  0  0  0  0  0  0  0
   -2.0437   -2.1272   -2.4925 C   0  0  0  0  0  0  0  0  0  0  0  0
   -1.3013   -2.2653   -3.8237 C   0  0  0  0  0  0  0  0  0  0  0  0
    0.1449   -1.7941   -3.6545 C   0  0  0  0  0  0  0  0  0  0  0  0
    0.8465   -2.6750   -2.6159 C   0  0  0  0  0  0  0  0  0  0  0  0
    0.2424    4.5053   -0.5491 C   0  0  0  0  0  0  0  0  0  0  0  0
    0.4317    5.7057   -0.5239 O   0  0  0  0  0  0  0  0  0  0  0  0
    2.8050    5.8530    3.1382 C   0  0  0  0  0  0  0  0  0  0  0  0
    2.3678    8.1720   -2.6362 H   0  0  0  0  0  0  0  0  0  0  0  0
    4.1024    8.4700   -2.3706 H   0  0  0  0  0  0  0  0  0  0  0  0
    3.5535    6.8889   -2.9765 H   0  0  0  0  0  0  0  0  0  0  0  0
    3.8226    9.0731   -0.0401 H   0  0  0  0  0  0  0  0  0  0  0  0
    3.6122    8.2796    2.2784 H   0  0  0  0  0  0  0  0  0  0  0  0
    2.5091    5.2857   -1.4898 H   0  0  0  0  0  0  0  0  0  0  0  0
    2.6921    3.4959    1.6391 H   0  0  0  0  0  0  0  0  0  0  0  0
   -1.1068    2.1427    1.3445 H   0  0  0  0  0  0  0  0  0  0  0  0
   -1.2503   -0.3266    1.2752 H   0  0  0  0  0  0  0  0  0  0  0  0
   -1.4689   -4.0650   -1.7221 H   0  0  0  0  0  0  0  0  0  0  0  0
   -1.8276   -2.8515   -0.4668 H   0  0  0  0  0  0  0  0  0  0  0  0
   -2.0152   -1.0875   -2.1663 H   0  0  0  0  0  0  0  0  0  0  0  0
   -3.0798   -2.4409   -2.6196 H   0  0  0  0  0  0  0  0  0  0  0  0
   -1.7957   -1.6557   -4.5801 H   0  0  0  0  0  0  0  0  0  0  0  0
   -1.3088   -3.3092   -4.1370 H   0  0  0  0  0  0  0  0  0  0  0  0
    0.1528   -0.7576   -3.3172 H   0  0  0  0  0  0  0  0  0  0  0  0
    0.6665   -1.8708   -4.6085 H   0  0  0  0  0  0  0  0  0  0  0  0
    1.8444   -2.2833   -2.4189 H   0  0  0  0  0  0  0  0  0  0  0  0
    0.9199   -3.6954   -2.9920 H   0  0  0  0  0  0  0  0  0  0  0  0
    3.7468    5.4093    3.4609 H   0  0  0  0  0  0  0  0  0  0  0  0
    2.5592    6.6947    3.7857 H   0  0  0  0  0  0  0  0  0  0  0  0
    2.0129    5.1065    3.1963 H   0  0  0  0  0  0  0  0  0  0  0  0
   -0.7454    3.9946   -1.3111 O   0  5  0  0  0  0  0  0  0  0  0  0
  1  2  1  0  0  0  0
  1 27  1  0  0  0  0
  1 28  1  0  0  0  0
  1 29  1  0  0  0  0
  2  7  2  0  0  0  0
  2  3  1  0  0  0  0
  3  4  2  0  0  0  0
  3 30  1  0  0  0  0
  4  5  1  0  0  0  0
  4 31  1  0  0  0  0
  5  6  2  0  0  0  0
  5 26  1  0  0  0  0
  6  7  1  0  0  0  0
  6  8  1  0  0  0  0
  7 32  1  0  0  0  0
  8  9  2  0  0  0  0
  8 33  1  0  0  0  0
  9 10  1  0  0  0  0
  9 24  1  0  0  0  0
 10 14  1  0  0  0  0
 10 11  2  0  0  0  0
 11 12  1  0  0  0  0
 11 34  1  0  0  0  0
 12 13  2  0  0  0  0
 12 35  1  0  0  0  0
 13 14  1  0  0  0  0
 13 15  1  0  0  0  0
 15 16  2  0  0  0  0
 15 17  2  0  0  0  0
 15 18  1  0  0  0  0
 18 23  1  0  0  0  0
 18 19  1  0  0  0  0
 19 20  1  0  0  0  0
 19 36  1  0  0  0  0
 19 37  1  0  0  0  0
 20 21  1  0  0  0  0
 20 38  1  0  0  0  0
 20 39  1  0  0  0  0
 21 22  1  0  0  0  0
 21 40  1  0  0  0  0
 21 41  1  0  0  0  0
 22 23  1  0  0  0  0
 22 42  1  0  0  0  0
 22 43  1  0  0  0  0
 23 44  1  0  0  0  0
 23 45  1  0  0  0  0
 24 25  2  0  0  0  0
 24 49  1  0  0  0  0
 26 46  1  0  0  0  0
 26 47  1  0  0  0  0
 26 48  1  0  0  0  0
M  CHG  1  49  -1
M  END
$$$$
ZINC03867172
  -OEChem-08230709463D

 50 52  0     1  0  0  0  0  0999 V2000
    6.3411    2.4755    2.3240 C   0  0  0  0  0  0  0  0  0  0  0  0
    6.9858    2.0320    1.0092 C   0  0  0  0  0  0  0  0  0  0  0  0
    6.0491    2.3617   -0.1547 C   0  0  1  0  0  0  0  0  0  0  0  0
    5.7978    3.4221   -0.1298 H   0  0  0  0  0  0  0  0  0  0  0  0
    6.7338    2.0382   -1.4576 C   0  0  0  0  0  0  0  0  0  0  0  0
    6.2485    1.2269   -2.2100 O   0  0  0  0  0  0  0  0  0  0  0  0
    4.8243    1.5667   -0.0362 N   0  0  0  0  0  0  0  0  0  0  0  0
    3.6524    2.1623   -0.0273 C   0  0  0  0  0  0  0  0  0  0  0  0
    3.5422    3.5822   -0.0081 C   0  0  0  0  0  0  0  0  0  0  0  0
    2.3137    4.1545    0.0001 C   0  0  0  0  0  0  0  0  0  0  0  0
    1.1785    3.4342   -0.0093 O   0  0  0  0  0  0  0  0  0  0  0  0
    1.1766    2.0836   -0.0271 C   0  0  0  0  0  0  0  0  0  0  0  0
    2.3916    1.3844   -0.0375 C   0  0  0  0  0  0  0  0  0  0  0  0
    2.4002   -0.0062   -0.0568 C   0  0  0  0  0  0  0  0  0  0  0  0
    1.2044   -0.6947   -0.0662 C   0  0  0  0  0  0  0  0  0  0  0  0
    0.0024   -0.0054   -0.0565 C   0  0  0  0  0  0  0  0  0  0  0  0
   -0.0168    1.3743   -0.0369 C   0  0  0  0  0  0  0  0  0  0  0  0
    1.2057   -2.2015   -0.0876 C   0  0  0  0  0  0  0  0  0  0  0  0
    2.2183    5.6271    0.0195 C   0  0  0  0  0  0  0  0  0  0  0  0
    3.3795    6.4039    0.0292 C   0  0  0  0  0  0  0  0  0  0  0  0
    3.2885    7.7792    0.0468 C   0  0  0  0  0  0  0  0  0  0  0  0
    2.0450    8.3955    0.0547 C   0  0  0  0  0  0  0  0  0  0  0  0
    0.8826    7.6268    0.0451 C   0  0  0  0  0  0  0  0  0  0  0  0
    0.9665    6.2476    0.0225 C   0  0  0  0  0  0  0  0  0  0  0  0
   -0.3342    8.2340    0.0524 O   0  0  0  0  0  0  0  0  0  0  0  0
   -1.4833    7.3845    0.0419 C   0  0  0  0  0  0  0  0  0  0  0  0
    1.9607    9.7515    0.0712 O   0  0  0  0  0  0  0  0  0  0  0  0
    3.1913   10.4780    0.0797 C   0  0  0  0  0  0  0  0  0  0  0  0
    6.1607    3.5501    2.2960 H   0  0  0  0  0  0  0  0  0  0  0  0
    5.3948    1.9516    2.4595 H   0  0  0  0  0  0  0  0  0  0  0  0
    7.0084    2.2406    3.1533 H   0  0  0  0  0  0  0  0  0  0  0  0
    7.1661    0.9574    1.0373 H   0  0  0  0  0  0  0  0  0  0  0  0
    7.9320    2.5558    0.8738 H   0  0  0  0  0  0  0  0  0  0  0  0
    4.4298    4.1974    0.0003 H   0  0  0  0  0  0  0  0  0  0  0  0
    3.3368   -0.5438   -0.0647 H   0  0  0  0  0  0  0  0  0  0  0  0
   -0.9283   -0.5532   -0.0640 H   0  0  0  0  0  0  0  0  0  0  0  0
   -0.9592    1.9018   -0.0336 H   0  0  0  0  0  0  0  0  0  0  0  0
    1.2061   -2.5502   -1.1203 H   0  0  0  0  0  0  0  0  0  0  0  0
    2.0960   -2.5714    0.4211 H   0  0  0  0  0  0  0  0  0  0  0  0
    0.3160   -2.5729    0.4209 H   0  0  0  0  0  0  0  0  0  0  0  0
    4.3484    5.9268    0.0231 H   0  0  0  0  0  0  0  0  0  0  0  0
    4.1869    8.3785    0.0543 H   0  0  0  0  0  0  0  0  0  0  0  0
    0.0665    5.6508    0.0106 H   0  0  0  0  0  0  0  0  0  0  0  0
   -1.4700    6.7445    0.9241 H   0  0  0  0  0  0  0  0  0  0  0  0
   -2.3864    7.9948    0.0492 H   0  0  0  0  0  0  0  0  0  0  0  0
   -1.4698    6.7662   -0.8557 H   0  0  0  0  0  0  0  0  0  0  0  0
    3.7656   10.2094    0.9664 H   0  0  0  0  0  0  0  0  0  0  0  0
    3.7652   10.2311   -0.8135 H   0  0  0  0  0  0  0  0  0  0  0  0
    2.9817   11.5476    0.0928 H   0  0  0  0  0  0  0  0  0  0  0  0
    7.8828    2.6515   -1.7823 O   0  5  0  0  0  0  0  0  0  0  0  0
  1  2  1  0  0  0  0
  1 29  1  0  0  0  0
  1 30  1  0  0  0  0
  1 31  1  0  0  0  0
  2  3  1  0  0  0  0
  2 32  1  0  0  0  0
  2 33  1  0  0  0  0
  3  4  1  0  0  0  0
  3  5  1  0  0  0  0
  3  7  1  0  0  0  0
  5  6  2  0  0  0  0
  5 50  1  0  0  0  0
  7  8  2  0  0  0  0
  8 13  1  0  0  0  0
  8  9  1  0  0  0  0
  9 10  2  0  0  0  0
  9 34  1  0  0  0  0
 10 11  1  0  0  0  0
 10 19  1  0  0  0  0
 11 12  1  0  0  0  0
 12 17  2  0  0  0  0
 12 13  1  0  0  0  0
 13 14  2  0  0  0  0
 14 15  1  0  0  0  0
 14 35  1  0  0  0  0
 15 16  2  0  0  0  0
 15 18  1  0  0  0  0
 16 17  1  0  0  0  0
 16 36  1  0  0  0  0
 17 37  1  0  0  0  0
 18 38  1  0  0  0  0
 18 39  1  0  0  0  0
 18 40  1  0  0  0  0
 19 24  2  0  0  0  0
 19 20  1  0  0  0  0
 20 21  2  0  0  0  0
 20 41  1  0  0  0  0
 21 22  1  0  0  0  0
 21 42  1  0  0  0  0
 22 23  2  0  0  0  0
 22 27  1  0  0  0  0
 23 24  1  0  0  0  0
 23 25  1  0  0  0  0
 24 43  1  0  0  0  0
 25 26  1  0  0  0  0
 26 44  1  0  0  0  0
 26 45  1  0  0  0  0
 26 46  1  0  0  0  0
 27 28  1  0  0  0  0
 28 47  1  0  0  0  0
 28 48  1  0  0  0  0
 28 49  1  0  0  0  0
M  CHG  1  50  -1
M  END
$$$$
ZINC03867174
  -OEChem-08230709463D

 50 52  0     1  0  0  0  0  0999 V2000
    3.5249   -6.0972   -2.6692 C   0  0  0  0  0  0  0  0  0  0  0  0
    4.3876   -6.5850   -1.5036 C   0  0  0  0  0  0  0  0  0  0  0  0
    3.7085   -6.2247   -0.1807 C   0  0  2  0  0  0  0  0  0  0  0  0
    3.5085   -5.1535   -0.1549 H   0  0  0  0  0  0  0  0  0  0  0  0
    4.6138   -6.5945    0.9658 C   0  0  0  0  0  0  0  0  0  0  0  0
    4.2432   -7.3905    1.7958 O   0  0  0  0  0  0  0  0  0  0  0  0
    2.4468   -6.9599   -0.0634 N   0  0  0  0  0  0  0  0  0  0  0  0
    1.3036   -6.3113   -0.0852 C   0  0  0  0  0  0  0  0  0  0  0  0
    1.2501   -4.9112   -0.3409 C   0  0  0  0  0  0  0  0  0  0  0  0
    0.0497   -4.2822   -0.3537 C   0  0  0  0  0  0  0  0  0  0  0  0
   -1.1085   -4.9264   -0.1279 O   0  0  0  0  0  0  0  0  0  0  0  0
   -1.1644   -6.2534    0.1182 C   0  0  0  0  0  0  0  0  0  0  0  0
    0.0176   -7.0063    0.1556 C   0  0  0  0  0  0  0  0  0  0  0  0
   -0.0289   -8.3720    0.4141 C   0  0  0  0  0  0  0  0  0  0  0  0
   -1.2467   -8.9827    0.6334 C   0  0  0  0  0  0  0  0  0  0  0  0
   -2.4161   -8.2404    0.5963 C   0  0  0  0  0  0  0  0  0  0  0  0
   -2.3806   -6.8847    0.3411 C   0  0  0  0  0  0  0  0  0  0  0  0
   -1.3050  -10.4622    0.9141 C   0  0  0  0  0  0  0  0  0  0  0  0
    0.0130   -2.8311   -0.6202 C   0  0  0  0  0  0  0  0  0  0  0  0
    1.1998   -2.1319   -0.8536 C   0  0  0  0  0  0  0  0  0  0  0  0
    1.1630   -0.7777   -1.1086 C   0  0  0  0  0  0  0  0  0  0  0  0
   -0.0501   -0.1037   -1.1232 C   0  0  0  0  0  0  0  0  0  0  0  0
   -1.2377   -0.7949   -0.8908 C   0  0  0  0  0  0  0  0  0  0  0  0
   -1.2088   -2.1535   -0.6402 C   0  0  0  0  0  0  0  0  0  0  0  0
   -2.4252   -0.1323   -0.9109 O   0  0  0  0  0  0  0  0  0  0  0  0
   -3.6027   -0.9035   -0.6645 C   0  0  0  0  0  0  0  0  0  0  0  0
   -0.0804    1.2320   -1.3703 O   0  0  0  0  0  0  0  0  0  0  0  0
    1.1734    1.8779   -1.6000 C   0  0  0  0  0  0  0  0  0  0  0  0
    2.5461   -6.5744   -2.6215 H   0  0  0  0  0  0  0  0  0  0  0  0
    3.4054   -5.0157   -2.6050 H   0  0  0  0  0  0  0  0  0  0  0  0
    4.0088   -6.3539   -3.6116 H   0  0  0  0  0  0  0  0  0  0  0  0
    5.3664   -6.1078   -1.5513 H   0  0  0  0  0  0  0  0  0  0  0  0
    4.5072   -7.6666   -1.5678 H   0  0  0  0  0  0  0  0  0  0  0  0
    2.1582   -4.3555   -0.5226 H   0  0  0  0  0  0  0  0  0  0  0  0
    0.8823   -8.9510    0.4426 H   0  0  0  0  0  0  0  0  0  0  0  0
   -3.3644   -8.7275    0.7692 H   0  0  0  0  0  0  0  0  0  0  0  0
   -3.2980   -6.3153    0.3152 H   0  0  0  0  0  0  0  0  0  0  0  0
   -1.4062  -11.0065   -0.0248 H   0  0  0  0  0  0  0  0  0  0  0  0
   -0.3894  -10.7729    1.4173 H   0  0  0  0  0  0  0  0  0  0  0  0
   -2.1616  -10.6773    1.5529 H   0  0  0  0  0  0  0  0  0  0  0  0
    2.1455   -2.6531   -0.8388 H   0  0  0  0  0  0  0  0  0  0  0  0
    2.0808   -0.2391   -1.2933 H   0  0  0  0  0  0  0  0  0  0  0  0
   -2.1285   -2.6905   -0.4606 H   0  0  0  0  0  0  0  0  0  0  0  0
   -3.5383   -1.3592    0.3236 H   0  0  0  0  0  0  0  0  0  0  0  0
   -4.4777   -0.2550   -0.7092 H   0  0  0  0  0  0  0  0  0  0  0  0
   -3.6902   -1.6845   -1.4198 H   0  0  0  0  0  0  0  0  0  0  0  0
    1.8105    1.7565   -0.7240 H   0  0  0  0  0  0  0  0  0  0  0  0
    1.6590    1.4306   -2.4673 H   0  0  0  0  0  0  0  0  0  0  0  0
    1.0070    2.9393   -1.7839 H   0  0  0  0  0  0  0  0  0  0  0  0
    5.8320   -6.0396    1.0650 O   0  5  0  0  0  0  0  0  0  0  0  0
  1  2  1  0  0  0  0
  1 29  1  0  0  0  0
  1 30  1  0  0  0  0
  1 31  1  0  0  0  0
  2  3  1  0  0  0  0
  2 32  1  0  0  0  0
  2 33  1  0  0  0  0
  3  4  1  0  0  0  0
  3  5  1  0  0  0  0
  3  7  1  0  0  0  0
  5  6  2  0  0  0  0
  5 50  1  0  0  0  0
  7  8  2  0  0  0  0
  8 13  1  0  0  0  0
  8  9  1  0  0  0  0
  9 10  2  0  0  0  0
  9 34  1  0  0  0  0
 10 11  1  0  0  0  0
 10 19  1  0  0  0  0
 11 12  1  0  0  0  0
 12 17  2  0  0  0  0
 12 13  1  0  0  0  0
 13 14  2  0  0  0  0
 14 15  1  0  0  0  0
 14 35  1  0  0  0  0
 15 16  2  0  0  0  0
 15 18  1  0  0  0  0
 16 17  1  0  0  0  0
 16 36  1  0  0  0  0
 17 37  1  0  0  0  0
 18 38  1  0  0  0  0
 18 39  1  0  0  0  0
 18 40  1  0  0  0  0
 19 24  2  0  0  0  0
 19 20  1  0  0  0  0
 20 21  2  0  0  0  0
 20 41  1  0  0  0  0
 21 22  1  0  0  0  0
 21 42  1  0  0  0  0
 22 23  2  0  0  0  0
 22 27  1  0  0  0  0
 23 24  1  0  0  0  0
 23 25  1  0  0  0  0
 24 43  1  0  0  0  0
 25 26  1  0  0  0  0
 26 44  1  0  0  0  0
 26 45  1  0  0  0  0
 26 46  1  0  0  0  0
 27 28  1  0  0  0  0
 28 47  1  0  0  0  0
 28 48  1  0  0  0  0
 28 49  1  0  0  0  0
M  CHG  1  50  -1
M  END
$$$$
ZINC03868838
  -OEChem-08230709463D

 62 66  0     1  0  0  0  0  0999 V2000
   -5.8939    6.9109   -3.8392 C   0  0  0  0  0  0  0  0  0  0  0  0
   -5.9982    8.0837   -2.8236 C   0  0  2  0  0  0  0  0  0  0  0  0
   -7.4726    8.4881   -2.8207 C   0  0  0  0  0  0  0  0  0  0  0  0
   -7.7415    9.8807   -2.2787 C   0  0  0  0  0  0  0  0  0  0  0  0
   -6.8593   10.9148   -2.9811 C   0  0  0  0  0  0  0  0  0  0  0  0
   -5.4000   10.5472   -2.6992 C   0  0  0  0  0  0  0  0  0  0  0  0
   -5.1037    9.1930   -3.3380 C   0  0  1  0  0  0  0  0  0  0  0  0
   -5.2898    9.2985   -4.4264 H   0  0  0  0  0  0  0  0  0  0  0  0
   -3.6193    8.8746   -3.1693 C   0  0  0  0  0  0  0  0  0  0  0  0
   -3.3409    8.5624   -1.6899 C   0  0  0  0  0  0  0  0  0  0  0  0
   -4.0994    7.2868   -1.3445 C   0  0  2  0  0  0  0  0  0  0  0  0
   -3.8202    6.5307   -2.1101 H   0  0  0  0  0  0  0  0  0  0  0  0
   -5.6014    7.5230   -1.4657 C   0  0  1  0  0  0  0  0  0  0  0  0
   -6.0921    6.5312   -1.3662 H   0  0  0  0  0  0  0  0  0  0  0  0
   -6.1039    8.3858   -0.3151 C   0  0  0  0  0  0  0  0  0  0  0  0
   -5.8201    7.6835    1.0131 C   0  0  0  0  0  0  0  0  0  0  0  0
   -4.3274    7.4349    1.1966 C   0  0  1  0  0  0  0  0  0  0  0  0
   -3.7321    6.7015    0.0042 C   0  0  2  0  0  0  0  0  0  0  0  0
   -4.1208    5.6612    0.0321 H   0  0  0  0  0  0  0  0  0  0  0  0
   -2.2353    6.6004    0.1668 C   0  0  0  0  0  0  0  0  0  0  0  0
   -1.6306    5.4084    0.0753 C   0  0  0  0  0  0  0  0  0  0  0  0
   -2.2644    4.1300   -0.3094 C   0  0  0  0  0  0  0  0  0  0  0  0
   -3.4301    3.9438   -0.6064 O   0  0  0  0  0  0  0  0  0  0  0  0
   -1.1840    3.1289   -0.2576 C   0  0  0  0  0  0  0  0  0  0  0  0
   -1.1542    1.7568   -0.5168 C   0  0  0  0  0  0  0  0  0  0  0  0
    0.0255    1.0600   -0.3783 C   0  0  0  0  0  0  0  0  0  0  0  0
    1.1837    1.7193    0.0063 C   0  0  0  0  0  0  0  0  0  0  0  0
    1.1701    3.0737    0.2597 C   0  0  0  0  0  0  0  0  0  0  0  0
   -0.0134    3.7984    0.1316 C   0  0  0  0  0  0  0  0  0  0  0  0
   -0.2854    5.1411    0.3257 N   0  0  0  0  0  0  0  0  0  0  0  0
   -3.5943    8.7494    1.4605 C   0  0  0  0  0  0  0  0  0  0  0  0
   -4.1497    6.5545    2.4237 C   0  0  0  0  0  0  0  0  0  0  0  0
   -3.6093    5.4786    2.3221 O   0  0  0  0  0  0  0  0  0  0  0  0
   -6.5684    6.1090   -3.5388 H   0  0  0  0  0  0  0  0  0  0  0  0
   -6.1700    7.2648   -4.8325 H   0  0  0  0  0  0  0  0  0  0  0  0
   -4.8703    6.5367   -3.8583 H   0  0  0  0  0  0  0  0  0  0  0  0
   -7.8524    8.4227   -3.8493 H   0  0  0  0  0  0  0  0  0  0  0  0
   -8.0321    7.7553   -2.2240 H   0  0  0  0  0  0  0  0  0  0  0  0
   -8.7922   10.1418   -2.4557 H   0  0  0  0  0  0  0  0  0  0  0  0
   -7.5602    9.9322   -1.2066 H   0  0  0  0  0  0  0  0  0  0  0  0
   -7.0439   10.8879   -4.0526 H   0  0  0  0  0  0  0  0  0  0  0  0
   -7.0703   11.9065   -2.5887 H   0  0  0  0  0  0  0  0  0  0  0  0
   -4.7496   11.3061   -3.1400 H   0  0  0  0  0  0  0  0  0  0  0  0
   -5.2312   10.5092   -1.6274 H   0  0  0  0  0  0  0  0  0  0  0  0
   -3.3401    8.0189   -3.7783 H   0  0  0  0  0  0  0  0  0  0  0  0
   -3.0247    9.7405   -3.4642 H   0  0  0  0  0  0  0  0  0  0  0  0
   -2.2695    8.4440   -1.5652 H   0  0  0  0  0  0  0  0  0  0  0  0
   -3.6989    9.3971   -1.0907 H   0  0  0  0  0  0  0  0  0  0  0  0
   -7.1924    8.4928   -0.4016 H   0  0  0  0  0  0  0  0  0  0  0  0
   -5.6397    9.3640   -0.3290 H   0  0  0  0  0  0  0  0  0  0  0  0
   -6.3513    6.7275    1.0312 H   0  0  0  0  0  0  0  0  0  0  0  0
   -6.1908    8.3020    1.8340 H   0  0  0  0  0  0  0  0  0  0  0  0
   -1.6515    7.4889    0.3568 H   0  0  0  0  0  0  0  0  0  0  0  0
   -2.0543    1.2433   -0.8209 H   0  0  0  0  0  0  0  0  0  0  0  0
    0.0500   -0.0019   -0.5739 H   0  0  0  0  0  0  0  0  0  0  0  0
    2.1054    1.1657    0.1077 H   0  0  0  0  0  0  0  0  0  0  0  0
    2.0790    3.5750    0.5581 H   0  0  0  0  0  0  0  0  0  0  0  0
    0.3685    5.8039    0.5977 H   0  0  0  0  0  0  0  0  0  0  0  0
   -3.7875    9.4436    0.6427 H   0  0  0  0  0  0  0  0  0  0  0  0
   -3.9494    9.1820    2.3958 H   0  0  0  0  0  0  0  0  0  0  0  0
   -2.5232    8.5602    1.5312 H   0  0  0  0  0  0  0  0  0  0  0  0
   -4.5933    6.9726    3.6196 O   0  5  0  0  0  0  0  0  0  0  0  0
  1  2  1  0  0  0  0
  1 34  1  0  0  0  0
  1 35  1  0  0  0  0
  1 36  1  0  0  0  0
  2  7  1  0  0  0  0
  2 13  1  0  0  0  0
  2  3  1  0  0  0  0
  3  4  1  0  0  0  0
  3 37  1  0  0  0  0
  3 38  1  0  0  0  0
  4  5  1  0  0  0  0
  4 39  1  0  0  0  0
  4 40  1  0  0  0  0
  5  6  1  0  0  0  0
  5 41  1  0  0  0  0
  5 42  1  0  0  0  0
  6  7  1  0  0  0  0
  6 43  1  0  0  0  0
  6 44  1  0  0  0  0
  7  8  1  0  0  0  0
  7  9  1  0  0  0  0
  9 10  1  0  0  0  0
  9 45  1  0  0  0  0
  9 46  1  0  0  0  0
 10 11  1  0  0  0  0
 10 47  1  0  0  0  0
 10 48  1  0  0  0  0
 11 12  1  0  0  0  0
 11 18  1  0  0  0  0
 11 13  1  0  0  0  0
 13 14  1  0  0  0  0
 13 15  1  0  0  0  0
 15 16  1  0  0  0  0
 15 49  1  0  0  0  0
 15 50  1  0  0  0  0
 16 17  1  0  0  0  0
 16 51  1  0  0  0  0
 16 52  1  0  0  0  0
 17 18  1  0  0  0  0
 17 31  1  0  0  0  0
 17 32  1  0  0  0  0
 18 19  1  0  0  0  0
 18 20  1  0  0  0  0
 20 21  2  0  0  0  0
 20 53  1  0  0  0  0
 21 30  1  0  0  0  0
 21 22  1  0  0  0  0
 22 23  2  0  0  0  0
 22 24  1  0  0  0  0
 24 29  2  0  0  0  0
 24 25  1  0  0  0  0
 25 26  2  0  0  0  0
 25 54  1  0  0  0  0
 26 27  1  0  0  0  0
 26 55  1  0  0  0  0
 27 28  2  0  0  0  0
 27 56  1  0  0  0  0
 28 29  1  0  0  0  0
 28 57  1  0  0  0  0
 29 30  1  0  0  0  0
 30 58  1  0  0  0  0
 31 59  1  0  0  0  0
 31 60  1  0  0  0  0
 31 61  1  0  0  0  0
 32 33  2  0  0  0  0
 32 62  1  0  0  0  0
M  CHG  1  62  -1
M  END
$$$$
ZINC03868841
  -OEChem-08230709463D

 53 56  0     0  0  0  0  0  0999 V2000
    7.5019   -2.6105    3.9814 C   0  0  0  0  0  0  0  0  0  0  0  0
    6.9637   -1.3200    3.4191 C   0  0  0  0  0  0  0  0  0  0  0  0
    7.7028   -0.1567    3.5326 C   0  0  0  0  0  0  0  0  0  0  0  0
    7.2129    1.0274    3.0175 C   0  0  0  0  0  0  0  0  0  0  0  0
    5.9763    1.0490    2.3856 C   0  0  0  0  0  0  0  0  0  0  0  0
    5.2337   -0.1199    2.2788 C   0  0  0  0  0  0  0  0  0  0  0  0
    5.7322   -1.3019    2.7905 C   0  0  0  0  0  0  0  0  0  0  0  0
    5.4773    2.2464    1.8629 N   0  0  0  0  0  0  0  0  0  0  0  0
    4.6509    3.1455    2.4875 C   0  0  0  0  0  0  0  0  0  0  0  0
    4.3585    4.1711    1.7182 N   0  0  0  0  0  0  0  0  0  0  0  0
    4.9471    4.0922    0.5162 C   0  0  0  0  0  0  0  0  0  0  0  0
    4.8585    4.9527   -0.4696 N   0  0  0  0  0  0  0  0  0  0  0  0
    5.9486    5.2055   -1.2571 C   0  0  0  0  0  0  0  0  0  0  0  0
    6.7112    4.1487   -1.7602 C   0  0  0  0  0  0  0  0  0  0  0  0
    7.8057    4.4107   -2.5572 C   0  0  0  0  0  0  0  0  0  0  0  0
    8.1552    5.7172   -2.8506 C   0  0  0  0  0  0  0  0  0  0  0  0
    7.4079    6.7690   -2.3512 C   0  0  0  0  0  0  0  0  0  0  0  0
    6.3074    6.5215   -1.5570 C   0  0  0  0  0  0  0  0  0  0  0  0
    7.7968    8.1883   -2.6759 C   0  0  0  0  0  0  0  0  0  0  0  0
    5.7255    2.8049    0.5347 C   0  0  0  0  0  0  0  0  0  0  0  0
    5.2612    1.8498   -0.5766 C   0  0  0  0  0  0  0  0  0  0  0  0
    6.4845    0.9126   -0.7522 C   0  0  0  0  0  0  0  0  0  0  0  0
    7.7053    1.8361   -0.5540 C   0  0  0  0  0  0  0  0  0  0  0  0
    7.2171    3.0369    0.2804 C   0  0  0  0  0  0  0  0  0  0  0  0
    4.0446    2.9455    4.1297 S   0  0  0  0  0  0  0  0  0  0  0  0
    3.0547    4.4529    4.2851 C   0  0  0  0  0  0  0  0  0  0  0  0
    2.4206    4.4989    5.6514 C   0  0  0  0  0  0  0  0  0  0  0  0
    2.6176    3.6043    6.4393 O   0  0  0  0  0  0  0  0  0  0  0  0
    7.1762   -2.7199    5.0159 H   0  0  0  0  0  0  0  0  0  0  0  0
    7.1276   -3.4476    3.3922 H   0  0  0  0  0  0  0  0  0  0  0  0
    8.5911   -2.5973    3.9429 H   0  0  0  0  0  0  0  0  0  0  0  0
    8.6643   -0.1743    4.0241 H   0  0  0  0  0  0  0  0  0  0  0  0
    7.7909    1.9354    3.1058 H   0  0  0  0  0  0  0  0  0  0  0  0
    4.2698   -0.1055    1.7919 H   0  0  0  0  0  0  0  0  0  0  0  0
    5.1573   -2.2121    2.7039 H   0  0  0  0  0  0  0  0  0  0  0  0
    6.4419    3.1287   -1.5286 H   0  0  0  0  0  0  0  0  0  0  0  0
    8.3938    3.5945   -2.9501 H   0  0  0  0  0  0  0  0  0  0  0  0
    9.0156    5.9168   -3.4722 H   0  0  0  0  0  0  0  0  0  0  0  0
    5.7249    7.3435   -1.1677 H   0  0  0  0  0  0  0  0  0  0  0  0
    8.4876    8.5582   -1.9182 H   0  0  0  0  0  0  0  0  0  0  0  0
    8.2790    8.2185   -3.6529 H   0  0  0  0  0  0  0  0  0  0  0  0
    6.9050    8.8149   -2.6913 H   0  0  0  0  0  0  0  0  0  0  0  0
    4.3841    1.2854   -0.2598 H   0  0  0  0  0  0  0  0  0  0  0  0
    5.0583    2.3972   -1.4970 H   0  0  0  0  0  0  0  0  0  0  0  0
    6.4924    0.4800   -1.7527 H   0  0  0  0  0  0  0  0  0  0  0  0
    6.4755    0.1258    0.0021 H   0  0  0  0  0  0  0  0  0  0  0  0
    8.0753    2.1786   -1.5204 H   0  0  0  0  0  0  0  0  0  0  0  0
    8.4931    1.3055   -0.0194 H   0  0  0  0  0  0  0  0  0  0  0  0
    7.3626    3.9630   -0.2756 H   0  0  0  0  0  0  0  0  0  0  0  0
    7.7561    3.0801    1.2268 H   0  0  0  0  0  0  0  0  0  0  0  0
    2.2758    4.4562    3.5227 H   0  0  0  0  0  0  0  0  0  0  0  0
    3.6963    5.3241    4.1528 H   0  0  0  0  0  0  0  0  0  0  0  0
    1.6324    5.5309    5.9911 O   0  5  0  0  0  0  0  0  0  0  0  0
  1  2  1  0  0  0  0
  1 29  1  0  0  0  0
  1 30  1  0  0  0  0
  1 31  1  0  0  0  0
  2  7  2  0  0  0  0
  2  3  1  0  0  0  0
  3  4  2  0  0  0  0
  3 32  1  0  0  0  0
  4  5  1  0  0  0  0
  4 33  1  0  0  0  0
  5  6  2  0  0  0  0
  5  8  1  0  0  0  0
  6  7  1  0  0  0  0
  6 34  1  0  0  0  0
  7 35  1  0  0  0  0
  8 20  1  0  0  0  0
  8  9  1  0  0  0  0
  9 10  2  0  0  0  0
  9 25  1  0  0  0  0
 10 11  1  0  0  0  0
 11 12  2  3  0  0  0
 11 20  1  0  0  0  0
 12 13  1  0  0  0  0
 13 18  2  0  0  0  0
 13 14  1  0  0  0  0
 14 15  2  0  0  0  0
 14 36  1  0  0  0  0
 15 16  1  0  0  0  0
 15 37  1  0  0  0  0
 16 17  2  0  0  0  0
 16 38  1  0  0  0  0
 17 18  1  0  0  0  0
 17 19  1  0  0  0  0
 18 39  1  0  0  0  0
 19 40  1  0  0  0  0
 19 41  1  0  0  0  0
 19 42  1  0  0  0  0
 20 24  1  0  0  0  0
 20 21  1  0  0  0  0
 21 22  1  0  0  0  0
 21 43  1  0  0  0  0
 21 44  1  0  0  0  0
 22 23  1  0  0  0  0
 22 45  1  0  0  0  0
 22 46  1  0  0  0  0
 23 24  1  0  0  0  0
 23 47  1  0  0  0  0
 23 48  1  0  0  0  0
 24 49  1  0  0  0  0
 24 50  1  0  0  0  0
 25 26  1  0  0  0  0
 26 27  1  0  0  0  0
 26 51  1  0  0  0  0
 26 52  1  0  0  0  0
 27 28  2  0  0  0  0
 27 53  1  0  0  0  0
M  CHG  1  53  -1
M  END
$$$$
ZINC03868920
  -OEChem-08230709463D

 55 57  0     0  0  0  0  0  0999 V2000
    3.6103  -12.2920    3.2295 C   0  0  0  0  0  0  0  0  0  0  0  0
    2.2203  -11.7774    3.6093 C   0  0  0  0  0  0  0  0  0  0  0  0
    2.3200  -10.9283    4.8781 C   0  0  0  0  0  0  0  0  0  0  0  0
    1.2885  -12.9644    3.8618 C   0  0  0  0  0  0  0  0  0  0  0  0
    1.6709  -10.9379    2.4848 C   0  0  0  0  0  0  0  0  0  0  0  0
    1.3539   -9.6125    2.7073 C   0  0  0  0  0  0  0  0  0  0  0  0
    0.8408   -8.8374    1.6704 C   0  0  0  0  0  0  0  0  0  0  0  0
    0.6605   -9.4047    0.4050 C   0  0  0  0  0  0  0  0  0  0  0  0
    0.9880  -10.7337    0.1942 C   0  0  0  0  0  0  0  0  0  0  0  0
    1.4914  -11.4961    1.2321 C   0  0  0  0  0  0  0  0  0  0  0  0
    0.7950  -11.3497   -1.1675 C   0  0  0  0  0  0  0  0  0  0  0  0
    1.1278  -12.8417   -1.1042 C   0  0  0  0  0  0  0  0  0  0  0  0
   -0.6594  -11.1699   -1.6071 C   0  0  0  0  0  0  0  0  0  0  0  0
    1.7206  -10.6630   -2.1738 C   0  0  0  0  0  0  0  0  0  0  0  0
    0.1661   -8.6544   -0.6143 O   0  0  0  0  0  0  0  0  0  0  0  0
    1.0593   -7.7214   -1.2257 C   0  0  0  0  0  0  0  0  0  0  0  0
    0.4928   -7.4147    1.9055 C   0  0  0  0  0  0  0  0  0  0  0  0
    0.6944   -6.7257    3.0548 C   0  0  0  0  0  0  0  0  0  0  0  0
    0.2295   -5.4299    2.8554 N   0  0  0  0  0  0  0  0  0  0  0  0
    0.1284   -4.2554    3.5692 C   0  0  0  0  0  0  0  0  0  0  0  0
   -0.4004   -3.1646    3.0170 C   0  0  0  0  0  0  0  0  0  0  0  0
   -0.8171   -3.7444    1.3800 S   0  0  0  0  0  0  0  0  0  0  0  0
   -0.2361   -5.4143    1.5664 C   0  0  0  0  0  0  0  0  0  0  0  0
   -0.0797   -6.5812    1.0125 N   0  0  0  0  0  0  0  0  0  0  0  0
   -0.6010   -1.7979    3.6195 C   0  0  0  0  0  0  0  0  0  0  0  0
    0.6186   -0.9511    3.3612 C   0  0  0  0  0  0  0  0  0  0  0  0
    1.5546   -1.4103    2.7505 O   0  0  0  0  0  0  0  0  0  0  0  0
    4.2741  -11.4464    3.0496 H   0  0  0  0  0  0  0  0  0  0  0  0
    4.0076  -12.8992    4.0428 H   0  0  0  0  0  0  0  0  0  0  0  0
    3.5393  -12.8969    2.3256 H   0  0  0  0  0  0  0  0  0  0  0  0
    1.3297  -10.5617    5.1487 H   0  0  0  0  0  0  0  0  0  0  0  0
    2.7173  -11.5355    5.6914 H   0  0  0  0  0  0  0  0  0  0  0  0
    2.9838  -10.0827    4.6982 H   0  0  0  0  0  0  0  0  0  0  0  0
    1.2175  -13.5693    2.9579 H   0  0  0  0  0  0  0  0  0  0  0  0
    1.6859  -13.5716    4.6751 H   0  0  0  0  0  0  0  0  0  0  0  0
    0.2983  -12.5978    4.1324 H   0  0  0  0  0  0  0  0  0  0  0  0
    1.4999   -9.1785    3.6854 H   0  0  0  0  0  0  0  0  0  0  0  0
    1.7453  -12.5323    1.0639 H   0  0  0  0  0  0  0  0  0  0  0  0
    0.4684  -13.3310   -0.3873 H   0  0  0  0  0  0  0  0  0  0  0  0
    0.9882  -13.2873   -2.0891 H   0  0  0  0  0  0  0  0  0  0  0  0
    2.1640  -12.9699   -0.7910 H   0  0  0  0  0  0  0  0  0  0  0  0
   -0.8966  -10.1069   -1.6523 H   0  0  0  0  0  0  0  0  0  0  0  0
   -0.7990  -11.6154   -2.5921 H   0  0  0  0  0  0  0  0  0  0  0  0
   -1.3188  -11.6591   -0.8903 H   0  0  0  0  0  0  0  0  0  0  0  0
    2.7362  -10.6432   -1.7785 H   0  0  0  0  0  0  0  0  0  0  0  0
    1.7073  -11.2137   -3.1143 H   0  0  0  0  0  0  0  0  0  0  0  0
    1.3776   -9.6426   -2.3454 H   0  0  0  0  0  0  0  0  0  0  0  0
    1.2767   -6.9145   -0.5259 H   0  0  0  0  0  0  0  0  0  0  0  0
    1.9859   -8.2285   -1.4948 H   0  0  0  0  0  0  0  0  0  0  0  0
    0.5966   -7.3098   -2.1227 H   0  0  0  0  0  0  0  0  0  0  0  0
    1.1357   -7.1126    3.9614 H   0  0  0  0  0  0  0  0  0  0  0  0
    0.4820   -4.2190    4.5890 H   0  0  0  0  0  0  0  0  0  0  0  0
   -0.7558   -1.8938    4.6942 H   0  0  0  0  0  0  0  0  0  0  0  0
   -1.4734   -1.3261    3.1674 H   0  0  0  0  0  0  0  0  0  0  0  0
    0.6650    0.3132    3.8095 O   0  5  0  0  0  0  0  0  0  0  0  0
  1  2  1  0  0  0  0
  1 28  1  0  0  0  0
  1 29  1  0  0  0  0
  1 30  1  0  0  0  0
  2  3  1  0  0  0  0
  2  4  1  0  0  0  0
  2  5  1  0  0  0  0
  3 31  1  0  0  0  0
  3 32  1  0  0  0  0
  3 33  1  0  0  0  0
  4 34  1  0  0  0  0
  4 35  1  0  0  0  0
  4 36  1  0  0  0  0
  5 10  2  0  0  0  0
  5  6  1  0  0  0  0
  6  7  2  0  0  0  0
  6 37  1  0  0  0  0
  7  8  1  0  0  0  0
  7 17  1  0  0  0  0
  8  9  2  0  0  0  0
  8 15  1  0  0  0  0
  9 10  1  0  0  0  0
  9 11  1  0  0  0  0
 10 38  1  0  0  0  0
 11 12  1  0  0  0  0
 11 13  1  0  0  0  0
 11 14  1  0  0  0  0
 12 39  1  0  0  0  0
 12 40  1  0  0  0  0
 12 41  1  0  0  0  0
 13 42  1  0  0  0  0
 13 43  1  0  0  0  0
 13 44  1  0  0  0  0
 14 45  1  0  0  0  0
 14 46  1  0  0  0  0
 14 47  1  0  0  0  0
 15 16  1  0  0  0  0
 16 48  1  0  0  0  0
 16 49  1  0  0  0  0
 16 50  1  0  0  0  0
 17 24  1  0  0  0  0
 17 18  2  0  0  0  0
 18 19  1  0  0  0  0
 18 51  1  0  0  0  0
 19 23  1  0  0  0  0
 19 20  1  0  0  0  0
 20 21  2  0  0  0  0
 20 52  1  0  0  0  0
 21 22  1  0  0  0  0
 21 25  1  0  0  0  0
 22 23  1  0  0  0  0
 23 24  2  0  0  0  0
 25 26  1  0  0  0  0
 25 53  1  0  0  0  0
 25 54  1  0  0  0  0
 26 27  2  0  0  0  0
 26 55  1  0  0  0  0
M  CHG  1  55  -1
M  END
$$$$
ZINC03868920
  -OEChem-08230709463D

 56 58  0     0  0  0  0  0  0999 V2000
    3.6103  -12.2920    3.2295 C   0  0  0  0  0  0  0  0  0  0  0  0
    2.2203  -11.7774    3.6093 C   0  0  0  0  0  0  0  0  0  0  0  0
    2.3200  -10.9283    4.8781 C   0  0  0  0  0  0  0  0  0  0  0  0
    1.2885  -12.9644    3.8618 C   0  0  0  0  0  0  0  0  0  0  0  0
    1.6709  -10.9379    2.4848 C   0  0  0  0  0  0  0  0  0  0  0  0
    1.3539   -9.6125    2.7073 C   0  0  0  0  0  0  0  0  0  0  0  0
    0.8408   -8.8374    1.6704 C   0  0  0  0  0  0  0  0  0  0  0  0
    0.6605   -9.4047    0.4050 C   0  0  0  0  0  0  0  0  0  0  0  0
    0.9880  -10.7337    0.1942 C   0  0  0  0  0  0  0  0  0  0  0  0
    1.4914  -11.4961    1.2321 C   0  0  0  0  0  0  0  0  0  0  0  0
    0.7950  -11.3497   -1.1675 C   0  0  0  0  0  0  0  0  0  0  0  0
    1.1278  -12.8417   -1.1042 C   0  0  0  0  0  0  0  0  0  0  0  0
   -0.6594  -11.1699   -1.6071 C   0  0  0  0  0  0  0  0  0  0  0  0
    1.7206  -10.6630   -2.1738 C   0  0  0  0  0  0  0  0  0  0  0  0
    0.1661   -8.6544   -0.6143 O   0  0  0  0  0  0  0  0  0  0  0  0
    1.0593   -7.7214   -1.2257 C   0  0  0  0  0  0  0  0  0  0  0  0
    0.4928   -7.4147    1.9055 C   0  0  0  0  0  0  0  0  0  0  0  0
    0.6944   -6.7257    3.0548 C   0  0  0  0  0  0  0  0  0  0  0  0
    0.2295   -5.4299    2.8554 N   0  0  0  0  0  0  0  0  0  0  0  0
    0.1284   -4.2554    3.5692 C   0  0  0  0  0  0  0  0  0  0  0  0
   -0.4004   -3.1646    3.0170 C   0  0  0  0  0  0  0  0  0  0  0  0
   -0.8171   -3.7444    1.3800 S   0  0  0  0  0  0  0  0  0  0  0  0
   -0.2361   -5.4143    1.5664 C   0  0  0  0  0  0  0  0  0  0  0  0
   -0.6010   -1.7979    3.6195 C   0  0  0  0  0  0  0  0  0  0  0  0
    0.6186   -0.9511    3.3612 C   0  0  0  0  0  0  0  0  0  0  0  0
    1.5546   -1.4103    2.7505 O   0  0  0  0  0  0  0  0  0  0  0  0
    4.2741  -11.4464    3.0496 H   0  0  0  0  0  0  0  0  0  0  0  0
    4.0076  -12.8992    4.0428 H   0  0  0  0  0  0  0  0  0  0  0  0
    3.5393  -12.8969    2.3256 H   0  0  0  0  0  0  0  0  0  0  0  0
    1.3297  -10.5617    5.1487 H   0  0  0  0  0  0  0  0  0  0  0  0
    2.7173  -11.5355    5.6914 H   0  0  0  0  0  0  0  0  0  0  0  0
    2.9838  -10.0827    4.6982 H   0  0  0  0  0  0  0  0  0  0  0  0
    1.2175  -13.5693    2.9579 H   0  0  0  0  0  0  0  0  0  0  0  0
    1.6859  -13.5716    4.6751 H   0  0  0  0  0  0  0  0  0  0  0  0
    0.2983  -12.5978    4.1324 H   0  0  0  0  0  0  0  0  0  0  0  0
    1.4999   -9.1785    3.6854 H   0  0  0  0  0  0  0  0  0  0  0  0
    1.7453  -12.5323    1.0639 H   0  0  0  0  0  0  0  0  0  0  0  0
    0.4684  -13.3310   -0.3873 H   0  0  0  0  0  0  0  0  0  0  0  0
    0.9882  -13.2873   -2.0891 H   0  0  0  0  0  0  0  0  0  0  0  0
    2.1640  -12.9699   -0.7910 H   0  0  0  0  0  0  0  0  0  0  0  0
   -0.8966  -10.1069   -1.6523 H   0  0  0  0  0  0  0  0  0  0  0  0
   -0.7990  -11.6154   -2.5921 H   0  0  0  0  0  0  0  0  0  0  0  0
   -1.3188  -11.6591   -0.8903 H   0  0  0  0  0  0  0  0  0  0  0  0
    2.7362  -10.6432   -1.7785 H   0  0  0  0  0  0  0  0  0  0  0  0
    1.7073  -11.2137   -3.1143 H   0  0  0  0  0  0  0  0  0  0  0  0
    1.3776   -9.6426   -2.3454 H   0  0  0  0  0  0  0  0  0  0  0  0
    1.2767   -6.9145   -0.5259 H   0  0  0  0  0  0  0  0  0  0  0  0
    1.9859   -8.2285   -1.4948 H   0  0  0  0  0  0  0  0  0  0  0  0
    0.5966   -7.3098   -2.1227 H   0  0  0  0  0  0  0  0  0  0  0  0
    1.1357   -7.1126    3.9614 H   0  0  0  0  0  0  0  0  0  0  0  0
    0.4820   -4.2190    4.5890 H   0  0  0  0  0  0  0  0  0  0  0  0
   -0.7558   -1.8938    4.6942 H   0  0  0  0  0  0  0  0  0  0  0  0
   -1.4734   -1.3261    3.1674 H   0  0  0  0  0  0  0  0  0  0  0  0
    0.6650    0.3132    3.8095 O   0  5  0  0  0  0  0  0  0  0  0  0
   -0.0787   -6.5803    1.0161 N   0  3  0  0  0  0  0  0  0  0  0  0
   -0.3471   -6.8266    0.0561 H   0  0  0  0  0  0  0  0  0  0  0  0
  1  2  1  0  0  0  0
  1 27  1  0  0  0  0
  1 28  1  0  0  0  0
  1 29  1  0  0  0  0
  2  3  1  0  0  0  0
  2  4  1  0  0  0  0
  2  5  1  0  0  0  0
  3 30  1  0  0  0  0
  3 31  1  0  0  0  0
  3 32  1  0  0  0  0
  4 33  1  0  0  0  0
  4 34  1  0  0  0  0
  4 35  1  0  0  0  0
  5 10  2  0  0  0  0
  5  6  1  0  0  0  0
  6  7  2  0  0  0  0
  6 36  1  0  0  0  0
  7  8  1  0  0  0  0
  7 17  1  0  0  0  0
  8  9  2  0  0  0  0
  8 15  1  0  0  0  0
  9 10  1  0  0  0  0
  9 11  1  0  0  0  0
 10 37  1  0  0  0  0
 11 12  1  0  0  0  0
 11 13  1  0  0  0  0
 11 14  1  0  0  0  0
 12 38  1  0  0  0  0
 12 39  1  0  0  0  0
 12 40  1  0  0  0  0
 13 41  1  0  0  0  0
 13 42  1  0  0  0  0
 13 43  1  0  0  0  0
 14 44  1  0  0  0  0
 14 45  1  0  0  0  0
 14 46  1  0  0  0  0
 15 16  1  0  0  0  0
 16 47  1  0  0  0  0
 16 48  1  0  0  0  0
 16 49  1  0  0  0  0
 17 18  2  0  0  0  0
 17 55  1  0  0  0  0
 18 19  1  0  0  0  0
 18 50  1  0  0  0  0
 19 23  1  0  0  0  0
 19 20  1  0  0  0  0
 20 21  2  0  0  0  0
 20 51  1  0  0  0  0
 21 22  1  0  0  0  0
 21 24  1  0  0  0  0
 22 23  1  0  0  0  0
 23 55  2  0  0  0  0
 24 25  1  0  0  0  0
 24 52  1  0  0  0  0
 24 53  1  0  0  0  0
 25 26  2  0  0  0  0
 25 54  1  0  0  0  0
 55 56  1  0  0  0  0
M  CHG  2  54  -1  55   1
M  END
$$$$
ZINC03868921
  -OEChem-08230709463D

 58 60  0     0  0  0  0  0  0999 V2000
    5.3879    2.4410    1.2213 C   0  0  0  0  0  0  0  0  0  0  0  0
    4.1245    1.5848    1.1128 C   0  0  0  0  0  0  0  0  0  0  0  0
    3.2992    2.0848    0.0588 O   0  0  0  0  0  0  0  0  0  0  0  0
    2.0719    1.5196   -0.0847 C   0  0  0  0  0  0  0  0  0  0  0  0
    1.9416    0.2738   -0.7063 C   0  0  0  0  0  0  0  0  0  0  0  0
    0.6796   -0.2974   -0.8493 C   0  0  0  0  0  0  0  0  0  0  0  0
   -0.4349    0.3674   -0.3777 C   0  0  0  0  0  0  0  0  0  0  0  0
   -0.3027    1.5994    0.2371 C   0  0  0  0  0  0  0  0  0  0  0  0
    0.9458    2.1753    0.3842 C   0  0  0  0  0  0  0  0  0  0  0  0
    1.0812    3.5178    1.0553 C   0  0  0  0  0  0  0  0  0  0  0  0
   -0.3097    4.0845    1.3475 C   0  0  0  0  0  0  0  0  0  0  0  0
    1.8522    3.3569    2.3669 C   0  0  0  0  0  0  0  0  0  0  0  0
    1.8384    4.4751    0.1327 C   0  0  0  0  0  0  0  0  0  0  0  0
   -1.8001   -0.2516   -0.5330 C   0  0  0  0  0  0  0  0  0  0  0  0
   -2.6889    0.6755   -1.3644 C   0  0  0  0  0  0  0  0  0  0  0  0
   -1.6702   -1.6024   -1.2396 C   0  0  0  0  0  0  0  0  0  0  0  0
   -2.4272   -0.4564    0.8475 C   0  0  0  0  0  0  0  0  0  0  0  0
    3.1423   -0.4364   -1.2107 C   0  0  0  0  0  0  0  0  0  0  0  0
    3.1695   -1.6934   -1.7163 C   0  0  0  0  0  0  0  0  0  0  0  0
    4.4844   -1.9754   -2.0718 N   0  0  0  0  0  0  0  0  0  0  0  0
    5.1971   -3.0199   -2.6196 C   0  0  0  0  0  0  0  0  0  0  0  0
    6.5098   -2.9184   -2.8220 C   0  0  0  0  0  0  0  0  0  0  0  0
    6.8486   -1.2686   -2.2278 S   0  0  0  0  0  0  0  0  0  0  0  0
    5.1890   -0.8441   -1.7518 C   0  0  0  0  0  0  0  0  0  0  0  0
    4.3966    0.0585   -1.2516 N   0  0  0  0  0  0  0  0  0  0  0  0
    7.4619   -3.9324   -3.4019 C   0  0  0  0  0  0  0  0  0  0  0  0
    7.5381   -3.7528   -4.8962 C   0  0  0  0  0  0  0  0  0  0  0  0
    6.8862   -2.8899   -5.4350 O   0  0  0  0  0  0  0  0  0  0  0  0
    5.9362    2.4004    0.2801 H   0  0  0  0  0  0  0  0  0  0  0  0
    5.1101    3.4730    1.4357 H   0  0  0  0  0  0  0  0  0  0  0  0
    6.0174    2.0596    2.0252 H   0  0  0  0  0  0  0  0  0  0  0  0
    3.5762    1.6254    2.0540 H   0  0  0  0  0  0  0  0  0  0  0  0
    4.4023    0.5528    0.8984 H   0  0  0  0  0  0  0  0  0  0  0  0
    0.5728   -1.2595   -1.3282 H   0  0  0  0  0  0  0  0  0  0  0  0
   -1.1790    2.1159    0.6000 H   0  0  0  0  0  0  0  0  0  0  0  0
   -0.8491    3.4025    2.0047 H   0  0  0  0  0  0  0  0  0  0  0  0
   -0.2117    5.0555    1.8329 H   0  0  0  0  0  0  0  0  0  0  0  0
   -0.8590    4.1991    0.4130 H   0  0  0  0  0  0  0  0  0  0  0  0
    2.8431    2.9532    2.1587 H   0  0  0  0  0  0  0  0  0  0  0  0
    1.9502    4.3279    2.8523 H   0  0  0  0  0  0  0  0  0  0  0  0
    1.3128    2.6749    3.0242 H   0  0  0  0  0  0  0  0  0  0  0  0
    1.2581    4.6399   -0.7752 H   0  0  0  0  0  0  0  0  0  0  0  0
    1.9924    5.4258    0.6431 H   0  0  0  0  0  0  0  0  0  0  0  0
    2.8041    4.0415   -0.1271 H   0  0  0  0  0  0  0  0  0  0  0  0
   -2.2421    0.8215   -2.3479 H   0  0  0  0  0  0  0  0  0  0  0  0
   -3.6763    0.2278   -1.4767 H   0  0  0  0  0  0  0  0  0  0  0  0
   -2.7814    1.6379   -0.8610 H   0  0  0  0  0  0  0  0  0  0  0  0
   -1.0370   -2.2629   -0.6473 H   0  0  0  0  0  0  0  0  0  0  0  0
   -2.6576   -2.0502   -1.3519 H   0  0  0  0  0  0  0  0  0  0  0  0
   -1.2234   -1.4565   -2.2231 H   0  0  0  0  0  0  0  0  0  0  0  0
   -2.5197    0.5059    1.3509 H   0  0  0  0  0  0  0  0  0  0  0  0
   -3.4146   -0.9042    0.7352 H   0  0  0  0  0  0  0  0  0  0  0  0
   -1.7940   -1.1170    1.4398 H   0  0  0  0  0  0  0  0  0  0  0  0
    2.3235   -2.3561   -1.8240 H   0  0  0  0  0  0  0  0  0  0  0  0
    4.6852   -3.9322   -2.8877 H   0  0  0  0  0  0  0  0  0  0  0  0
    8.4518   -3.7911   -2.9680 H   0  0  0  0  0  0  0  0  0  0  0  0
    7.1055   -4.9371   -3.1744 H   0  0  0  0  0  0  0  0  0  0  0  0
    8.3302   -4.5515   -5.6287 O   0  5  0  0  0  0  0  0  0  0  0  0
  1  2  1  0  0  0  0
  1 29  1  0  0  0  0
  1 30  1  0  0  0  0
  1 31  1  0  0  0  0
  2  3  1  0  0  0  0
  2 32  1  0  0  0  0
  2 33  1  0  0  0  0
  3  4  1  0  0  0  0
  4  9  2  0  0  0  0
  4  5  1  0  0  0  0
  5  6  2  0  0  0  0
  5 18  1  0  0  0  0
  6  7  1  0  0  0  0
  6 34  1  0  0  0  0
  7  8  2  0  0  0  0
  7 14  1  0  0  0  0
  8  9  1  0  0  0  0
  8 35  1  0  0  0  0
  9 10  1  0  0  0  0
 10 11  1  0  0  0  0
 10 12  1  0  0  0  0
 10 13  1  0  0  0  0
 11 36  1  0  0  0  0
 11 37  1  0  0  0  0
 11 38  1  0  0  0  0
 12 39  1  0  0  0  0
 12 40  1  0  0  0  0
 12 41  1  0  0  0  0
 13 42  1  0  0  0  0
 13 43  1  0  0  0  0
 13 44  1  0  0  0  0
 14 15  1  0  0  0  0
 14 16  1  0  0  0  0
 14 17  1  0  0  0  0
 15 45  1  0  0  0  0
 15 46  1  0  0  0  0
 15 47  1  0  0  0  0
 16 48  1  0  0  0  0
 16 49  1  0  0  0  0
 16 50  1  0  0  0  0
 17 51  1  0  0  0  0
 17 52  1  0  0  0  0
 17 53  1  0  0  0  0
 18 25  1  0  0  0  0
 18 19  2  0  0  0  0
 19 20  1  0  0  0  0
 19 54  1  0  0  0  0
 20 24  1  0  0  0  0
 20 21  1  0  0  0  0
 21 22  2  0  0  0  0
 21 55  1  0  0  0  0
 22 23  1  0  0  0  0
 22 26  1  0  0  0  0
 23 24  1  0  0  0  0
 24 25  2  0  0  0  0
 26 27  1  0  0  0  0
 26 56  1  0  0  0  0
 26 57  1  0  0  0  0
 27 28  2  0  0  0  0
 27 58  1  0  0  0  0
M  CHG  1  58  -1
M  END
$$$$
ZINC03868921
  -OEChem-08230709463D

 59 61  0     0  0  0  0  0  0999 V2000
    5.3879    2.4410    1.2213 C   0  0  0  0  0  0  0  0  0  0  0  0
    4.1245    1.5848    1.1128 C   0  0  0  0  0  0  0  0  0  0  0  0
    3.2992    2.0848    0.0588 O   0  0  0  0  0  0  0  0  0  0  0  0
    2.0719    1.5196   -0.0847 C   0  0  0  0  0  0  0  0  0  0  0  0
    1.9416    0.2738   -0.7063 C   0  0  0  0  0  0  0  0  0  0  0  0
    0.6796   -0.2974   -0.8493 C   0  0  0  0  0  0  0  0  0  0  0  0
   -0.4349    0.3674   -0.3777 C   0  0  0  0  0  0  0  0  0  0  0  0
   -0.3027    1.5994    0.2371 C   0  0  0  0  0  0  0  0  0  0  0  0
    0.9458    2.1753    0.3842 C   0  0  0  0  0  0  0  0  0  0  0  0
    1.0812    3.5178    1.0553 C   0  0  0  0  0  0  0  0  0  0  0  0
   -0.3097    4.0845    1.3475 C   0  0  0  0  0  0  0  0  0  0  0  0
    1.8522    3.3569    2.3669 C   0  0  0  0  0  0  0  0  0  0  0  0
    1.8384    4.4751    0.1327 C   0  0  0  0  0  0  0  0  0  0  0  0
   -1.8001   -0.2516   -0.5330 C   0  0  0  0  0  0  0  0  0  0  0  0
   -2.6889    0.6755   -1.3644 C   0  0  0  0  0  0  0  0  0  0  0  0
   -1.6702   -1.6024   -1.2396 C   0  0  0  0  0  0  0  0  0  0  0  0
   -2.4272   -0.4564    0.8475 C   0  0  0  0  0  0  0  0  0  0  0  0
    3.1423   -0.4364   -1.2107 C   0  0  0  0  0  0  0  0  0  0  0  0
    3.1695   -1.6934   -1.7163 C   0  0  0  0  0  0  0  0  0  0  0  0
    4.4844   -1.9754   -2.0718 N   0  0  0  0  0  0  0  0  0  0  0  0
    5.1971   -3.0199   -2.6196 C   0  0  0  0  0  0  0  0  0  0  0  0
    6.5098   -2.9184   -2.8220 C   0  0  0  0  0  0  0  0  0  0  0  0
    6.8486   -1.2686   -2.2278 S   0  0  0  0  0  0  0  0  0  0  0  0
    5.1890   -0.8441   -1.7518 C   0  0  0  0  0  0  0  0  0  0  0  0
    7.4619   -3.9324   -3.4019 C   0  0  0  0  0  0  0  0  0  0  0  0
    7.5381   -3.7528   -4.8962 C   0  0  0  0  0  0  0  0  0  0  0  0
    6.8862   -2.8899   -5.4350 O   0  0  0  0  0  0  0  0  0  0  0  0
    5.9362    2.4004    0.2801 H   0  0  0  0  0  0  0  0  0  0  0  0
    5.1101    3.4730    1.4357 H   0  0  0  0  0  0  0  0  0  0  0  0
    6.0174    2.0596    2.0252 H   0  0  0  0  0  0  0  0  0  0  0  0
    3.5762    1.6254    2.0540 H   0  0  0  0  0  0  0  0  0  0  0  0
    4.4023    0.5528    0.8984 H   0  0  0  0  0  0  0  0  0  0  0  0
    0.5728   -1.2595   -1.3282 H   0  0  0  0  0  0  0  0  0  0  0  0
   -1.1790    2.1159    0.6000 H   0  0  0  0  0  0  0  0  0  0  0  0
   -0.8491    3.4025    2.0047 H   0  0  0  0  0  0  0  0  0  0  0  0
   -0.2117    5.0555    1.8329 H   0  0  0  0  0  0  0  0  0  0  0  0
   -0.8590    4.1991    0.4130 H   0  0  0  0  0  0  0  0  0  0  0  0
    2.8431    2.9532    2.1587 H   0  0  0  0  0  0  0  0  0  0  0  0
    1.9502    4.3279    2.8523 H   0  0  0  0  0  0  0  0  0  0  0  0
    1.3128    2.6749    3.0242 H   0  0  0  0  0  0  0  0  0  0  0  0
    1.2581    4.6399   -0.7752 H   0  0  0  0  0  0  0  0  0  0  0  0
    1.9924    5.4258    0.6431 H   0  0  0  0  0  0  0  0  0  0  0  0
    2.8041    4.0415   -0.1271 H   0  0  0  0  0  0  0  0  0  0  0  0
   -2.2421    0.8215   -2.3479 H   0  0  0  0  0  0  0  0  0  0  0  0
   -3.6763    0.2278   -1.4767 H   0  0  0  0  0  0  0  0  0  0  0  0
   -2.7814    1.6379   -0.8610 H   0  0  0  0  0  0  0  0  0  0  0  0
   -1.0370   -2.2629   -0.6473 H   0  0  0  0  0  0  0  0  0  0  0  0
   -2.6576   -2.0502   -1.3519 H   0  0  0  0  0  0  0  0  0  0  0  0
   -1.2234   -1.4565   -2.2231 H   0  0  0  0  0  0  0  0  0  0  0  0
   -2.5197    0.5059    1.3509 H   0  0  0  0  0  0  0  0  0  0  0  0
   -3.4146   -0.9042    0.7352 H   0  0  0  0  0  0  0  0  0  0  0  0
   -1.7940   -1.1170    1.4398 H   0  0  0  0  0  0  0  0  0  0  0  0
    2.3235   -2.3561   -1.8240 H   0  0  0  0  0  0  0  0  0  0  0  0
    4.6852   -3.9322   -2.8877 H   0  0  0  0  0  0  0  0  0  0  0  0
    8.4518   -3.7911   -2.9680 H   0  0  0  0  0  0  0  0  0  0  0  0
    7.1055   -4.9371   -3.1744 H   0  0  0  0  0  0  0  0  0  0  0  0
    8.3302   -4.5515   -5.6287 O   0  5  0  0  0  0  0  0  0  0  0  0
    4.3955    0.0551   -1.2527 N   0  3  0  0  0  0  0  0  0  0  0  0
    4.6786    0.9912   -0.9401 H   0  0  0  0  0  0  0  0  0  0  0  0
  1  2  1  0  0  0  0
  1 28  1  0  0  0  0
  1 29  1  0  0  0  0
  1 30  1  0  0  0  0
  2  3  1  0  0  0  0
  2 31  1  0  0  0  0
  2 32  1  0  0  0  0
  3  4  1  0  0  0  0
  4  9  2  0  0  0  0
  4  5  1  0  0  0  0
  5  6  2  0  0  0  0
  5 18  1  0  0  0  0
  6  7  1  0  0  0  0
  6 33  1  0  0  0  0
  7  8  2  0  0  0  0
  7 14  1  0  0  0  0
  8  9  1  0  0  0  0
  8 34  1  0  0  0  0
  9 10  1  0  0  0  0
 10 11  1  0  0  0  0
 10 12  1  0  0  0  0
 10 13  1  0  0  0  0
 11 35  1  0  0  0  0
 11 36  1  0  0  0  0
 11 37  1  0  0  0  0
 12 38  1  0  0  0  0
 12 39  1  0  0  0  0
 12 40  1  0  0  0  0
 13 41  1  0  0  0  0
 13 42  1  0  0  0  0
 13 43  1  0  0  0  0
 14 15  1  0  0  0  0
 14 16  1  0  0  0  0
 14 17  1  0  0  0  0
 15 44  1  0  0  0  0
 15 45  1  0  0  0  0
 15 46  1  0  0  0  0
 16 47  1  0  0  0  0
 16 48  1  0  0  0  0
 16 49  1  0  0  0  0
 17 50  1  0  0  0  0
 17 51  1  0  0  0  0
 17 52  1  0  0  0  0
 18 19  2  0  0  0  0
 18 58  1  0  0  0  0
 19 20  1  0  0  0  0
 19 53  1  0  0  0  0
 20 24  1  0  0  0  0
 20 21  1  0  0  0  0
 21 22  2  0  0  0  0
 21 54  1  0  0  0  0
 22 23  1  0  0  0  0
 22 25  1  0  0  0  0
 23 24  1  0  0  0  0
 24 58  2  0  0  0  0
 25 26  1  0  0  0  0
 25 55  1  0  0  0  0
 25 56  1  0  0  0  0
 26 27  2  0  0  0  0
 26 57  1  0  0  0  0
 58 59  1  0  0  0  0
M  CHG  2  57  -1  58   1
M  END
$$$$
ZINC03868922
  -OEChem-08230709463D

 49 51  0     0  0  0  0  0  0999 V2000
    3.3880   -1.2446    7.2371 C   0  0  0  0  0  0  0  0  0  0  0  0
    2.7814   -0.8289    5.8954 C   0  0  0  0  0  0  0  0  0  0  0  0
    1.5371    0.0267    6.1415 C   0  0  0  0  0  0  0  0  0  0  0  0
    1.9259    1.2761    6.9344 C   0  0  0  0  0  0  0  0  0  0  0  0
    0.5106   -0.7828    6.9363 C   0  0  0  0  0  0  0  0  0  0  0  0
    0.9396    0.4362    4.8200 C   0  0  0  0  0  0  0  0  0  0  0  0
    1.5333    0.0276    3.6388 C   0  0  0  0  0  0  0  0  0  0  0  0
    0.9892    0.3934    2.4219 C   0  0  0  0  0  0  0  0  0  0  0  0
   -0.1489    1.1822    2.3794 C   0  0  0  0  0  0  0  0  0  0  0  0
   -0.7507    1.5970    3.5711 C   0  0  0  0  0  0  0  0  0  0  0  0
   -0.1977    1.2180    4.7921 C   0  0  0  0  0  0  0  0  0  0  0  0
   -1.9731    2.4366    3.5355 C   0  0  0  0  0  0  0  0  0  0  0  0
   -2.6077    2.8712    2.4198 C   0  0  0  0  0  0  0  0  0  0  0  0
   -3.7040    3.6248    2.8261 N   0  0  0  0  0  0  0  0  0  0  0  0
   -4.7344    4.3320    2.2453 C   0  0  0  0  0  0  0  0  0  0  0  0
   -5.6415    4.9560    2.9950 C   0  0  0  0  0  0  0  0  0  0  0  0
   -5.0815    4.5733    4.6472 S   0  0  0  0  0  0  0  0  0  0  0  0
   -3.6643    3.5992    4.1960 C   0  0  0  0  0  0  0  0  0  0  0  0
   -2.6502    2.8959    4.6081 N   0  0  0  0  0  0  0  0  0  0  0  0
   -6.8314    5.7729    2.5615 C   0  0  0  0  0  0  0  0  0  0  0  0
   -8.0324    4.8740    2.4179 C   0  0  0  0  0  0  0  0  0  0  0  0
   -7.9323    3.6913    2.6442 O   0  0  0  0  0  0  0  0  0  0  0  0
   -0.6816    1.5467    1.1837 O   0  0  0  0  0  0  0  0  0  0  0  0
   -0.0127    1.0858    0.0080 C   0  0  0  0  0  0  0  0  0  0  0  0
   -0.7527    1.5927   -1.2315 C   0  0  0  0  0  0  0  0  0  0  0  0
    3.6650   -0.3545    7.8020 H   0  0  0  0  0  0  0  0  0  0  0  0
    2.6567   -1.8213    7.8034 H   0  0  0  0  0  0  0  0  0  0  0  0
    4.2745   -1.8541    7.0618 H   0  0  0  0  0  0  0  0  0  0  0  0
    2.5044   -1.7190    5.3305 H   0  0  0  0  0  0  0  0  0  0  0  0
    3.5127   -0.2521    5.3291 H   0  0  0  0  0  0  0  0  0  0  0  0
    1.0394    1.8857    7.1097 H   0  0  0  0  0  0  0  0  0  0  0  0
    2.3580    0.9800    7.8902 H   0  0  0  0  0  0  0  0  0  0  0  0
    2.6572    1.8529    6.3681 H   0  0  0  0  0  0  0  0  0  0  0  0
    0.2336   -1.6729    6.3714 H   0  0  0  0  0  0  0  0  0  0  0  0
    0.9427   -1.0790    7.8922 H   0  0  0  0  0  0  0  0  0  0  0  0
   -0.3759   -0.1733    7.1116 H   0  0  0  0  0  0  0  0  0  0  0  0
    2.4232   -0.5837    3.6678 H   0  0  0  0  0  0  0  0  0  0  0  0
    1.4544    0.0677    1.5032 H   0  0  0  0  0  0  0  0  0  0  0  0
   -0.6580    1.5357    5.7159 H   0  0  0  0  0  0  0  0  0  0  0  0
   -2.3152    2.6691    1.4000 H   0  0  0  0  0  0  0  0  0  0  0  0
   -4.8071    4.3811    1.1688 H   0  0  0  0  0  0  0  0  0  0  0  0
   -7.0381    6.5387    3.3091 H   0  0  0  0  0  0  0  0  0  0  0  0
   -6.6167    6.2481    1.6044 H   0  0  0  0  0  0  0  0  0  0  0  0
    0.0021   -0.0041    0.0020 H   0  0  0  0  0  0  0  0  0  0  0  0
    1.0099    1.4631    0.0003 H   0  0  0  0  0  0  0  0  0  0  0  0
   -0.7675    2.6825   -1.2255 H   0  0  0  0  0  0  0  0  0  0  0  0
   -0.2425    1.2411   -2.1283 H   0  0  0  0  0  0  0  0  0  0  0  0
   -1.7753    1.2154   -1.2238 H   0  0  0  0  0  0  0  0  0  0  0  0
   -9.2132    5.3871    2.0385 O   0  5  0  0  0  0  0  0  0  0  0  0
  1  2  1  0  0  0  0
  1 26  1  0  0  0  0
  1 27  1  0  0  0  0
  1 28  1  0  0  0  0
  2  3  1  0  0  0  0
  2 29  1  0  0  0  0
  2 30  1  0  0  0  0
  3  4  1  0  0  0  0
  3  5  1  0  0  0  0
  3  6  1  0  0  0  0
  4 31  1  0  0  0  0
  4 32  1  0  0  0  0
  4 33  1  0  0  0  0
  5 34  1  0  0  0  0
  5 35  1  0  0  0  0
  5 36  1  0  0  0  0
  6 11  2  0  0  0  0
  6  7  1  0  0  0  0
  7  8  2  0  0  0  0
  7 37  1  0  0  0  0
  8  9  1  0  0  0  0
  8 38  1  0  0  0  0
  9 10  2  0  0  0  0
  9 23  1  0  0  0  0
 10 11  1  0  0  0  0
 10 12  1  0  0  0  0
 11 39  1  0  0  0  0
 12 19  1  0  0  0  0
 12 13  2  0  0  0  0
 13 14  1  0  0  0  0
 13 40  1  0  0  0  0
 14 18  1  0  0  0  0
 14 15  1  0  0  0  0
 15 16  2  0  0  0  0
 15 41  1  0  0  0  0
 16 17  1  0  0  0  0
 16 20  1  0  0  0  0
 17 18  1  0  0  0  0
 18 19  2  0  0  0  0
 20 21  1  0  0  0  0
 20 42  1  0  0  0  0
 20 43  1  0  0  0  0
 21 22  2  0  0  0  0
 21 49  1  0  0  0  0
 23 24  1  0  0  0  0
 24 25  1  0  0  0  0
 24 44  1  0  0  0  0
 24 45  1  0  0  0  0
 25 46  1  0  0  0  0
 25 47  1  0  0  0  0
 25 48  1  0  0  0  0
M  CHG  1  49  -1
M  END
$$$$
ZINC03868922
  -OEChem-08230709463D

 50 52  0     0  0  0  0  0  0999 V2000
    3.3880   -1.2446    7.2371 C   0  0  0  0  0  0  0  0  0  0  0  0
    2.7814   -0.8289    5.8954 C   0  0  0  0  0  0  0  0  0  0  0  0
    1.5371    0.0267    6.1415 C   0  0  0  0  0  0  0  0  0  0  0  0
    1.9259    1.2761    6.9344 C   0  0  0  0  0  0  0  0  0  0  0  0
    0.5106   -0.7828    6.9363 C   0  0  0  0  0  0  0  0  0  0  0  0
    0.9396    0.4362    4.8200 C   0  0  0  0  0  0  0  0  0  0  0  0
    1.5333    0.0276    3.6388 C   0  0  0  0  0  0  0  0  0  0  0  0
    0.9892    0.3934    2.4219 C   0  0  0  0  0  0  0  0  0  0  0  0
   -0.1489    1.1822    2.3794 C   0  0  0  0  0  0  0  0  0  0  0  0
   -0.7507    1.5970    3.5711 C   0  0  0  0  0  0  0  0  0  0  0  0
   -0.1977    1.2180    4.7921 C   0  0  0  0  0  0  0  0  0  0  0  0
   -1.9731    2.4366    3.5355 C   0  0  0  0  0  0  0  0  0  0  0  0
   -2.6077    2.8712    2.4198 C   0  0  0  0  0  0  0  0  0  0  0  0
   -3.7040    3.6248    2.8261 N   0  0  0  0  0  0  0  0  0  0  0  0
   -4.7344    4.3320    2.2453 C   0  0  0  0  0  0  0  0  0  0  0  0
   -5.6415    4.9560    2.9950 C   0  0  0  0  0  0  0  0  0  0  0  0
   -5.0815    4.5733    4.6472 S   0  0  0  0  0  0  0  0  0  0  0  0
   -3.6643    3.5992    4.1960 C   0  0  0  0  0  0  0  0  0  0  0  0
   -6.8314    5.7729    2.5615 C   0  0  0  0  0  0  0  0  0  0  0  0
   -8.0324    4.8740    2.4179 C   0  0  0  0  0  0  0  0  0  0  0  0
   -7.9323    3.6913    2.6442 O   0  0  0  0  0  0  0  0  0  0  0  0
   -0.6816    1.5467    1.1837 O   0  0  0  0  0  0  0  0  0  0  0  0
   -0.0127    1.0858    0.0080 C   0  0  0  0  0  0  0  0  0  0  0  0
   -0.7527    1.5927   -1.2315 C   0  0  0  0  0  0  0  0  0  0  0  0
    3.6650   -0.3545    7.8020 H   0  0  0  0  0  0  0  0  0  0  0  0
    2.6567   -1.8213    7.8034 H   0  0  0  0  0  0  0  0  0  0  0  0
    4.2745   -1.8541    7.0618 H   0  0  0  0  0  0  0  0  0  0  0  0
    2.5044   -1.7190    5.3305 H   0  0  0  0  0  0  0  0  0  0  0  0
    3.5127   -0.2521    5.3291 H   0  0  0  0  0  0  0  0  0  0  0  0
    1.0394    1.8857    7.1097 H   0  0  0  0  0  0  0  0  0  0  0  0
    2.3580    0.9800    7.8902 H   0  0  0  0  0  0  0  0  0  0  0  0
    2.6572    1.8529    6.3681 H   0  0  0  0  0  0  0  0  0  0  0  0
    0.2336   -1.6729    6.3714 H   0  0  0  0  0  0  0  0  0  0  0  0
    0.9427   -1.0790    7.8922 H   0  0  0  0  0  0  0  0  0  0  0  0
   -0.3759   -0.1733    7.1116 H   0  0  0  0  0  0  0  0  0  0  0  0
    2.4232   -0.5837    3.6678 H   0  0  0  0  0  0  0  0  0  0  0  0
    1.4544    0.0677    1.5032 H   0  0  0  0  0  0  0  0  0  0  0  0
   -0.6580    1.5357    5.7159 H   0  0  0  0  0  0  0  0  0  0  0  0
   -2.3152    2.6691    1.4000 H   0  0  0  0  0  0  0  0  0  0  0  0
   -4.8071    4.3811    1.1688 H   0  0  0  0  0  0  0  0  0  0  0  0
   -7.0381    6.5387    3.3091 H   0  0  0  0  0  0  0  0  0  0  0  0
   -6.6167    6.2481    1.6044 H   0  0  0  0  0  0  0  0  0  0  0  0
    0.0021   -0.0041    0.0020 H   0  0  0  0  0  0  0  0  0  0  0  0
    1.0099    1.4631    0.0003 H   0  0  0  0  0  0  0  0  0  0  0  0
   -0.7675    2.6825   -1.2255 H   0  0  0  0  0  0  0  0  0  0  0  0
   -0.2425    1.2411   -2.1283 H   0  0  0  0  0  0  0  0  0  0  0  0
   -1.7753    1.2154   -1.2238 H   0  0  0  0  0  0  0  0  0  0  0  0
   -9.2132    5.3871    2.0385 O   0  5  0  0  0  0  0  0  0  0  0  0
   -2.6511    2.8965    4.6045 N   0  3  0  0  0  0  0  0  0  0  0  0
   -2.4061    2.7199    5.5858 H   0  0  0  0  0  0  0  0  0  0  0  0
  1  2  1  0  0  0  0
  1 25  1  0  0  0  0
  1 26  1  0  0  0  0
  1 27  1  0  0  0  0
  2  3  1  0  0  0  0
  2 28  1  0  0  0  0
  2 29  1  0  0  0  0
  3  4  1  0  0  0  0
  3  5  1  0  0  0  0
  3  6  1  0  0  0  0
  4 30  1  0  0  0  0
  4 31  1  0  0  0  0
  4 32  1  0  0  0  0
  5 33  1  0  0  0  0
  5 34  1  0  0  0  0
  5 35  1  0  0  0  0
  6 11  2  0  0  0  0
  6  7  1  0  0  0  0
  7  8  2  0  0  0  0
  7 36  1  0  0  0  0
  8  9  1  0  0  0  0
  8 37  1  0  0  0  0
  9 10  2  0  0  0  0
  9 22  1  0  0  0  0
 10 11  1  0  0  0  0
 10 12  1  0  0  0  0
 11 38  1  0  0  0  0
 12 13  2  0  0  0  0
 12 49  1  0  0  0  0
 13 14  1  0  0  0  0
 13 39  1  0  0  0  0
 14 18  1  0  0  0  0
 14 15  1  0  0  0  0
 15 16  2  0  0  0  0
 15 40  1  0  0  0  0
 16 17  1  0  0  0  0
 16 19  1  0  0  0  0
 17 18  1  0  0  0  0
 18 49  2  0  0  0  0
 19 20  1  0  0  0  0
 19 41  1  0  0  0  0
 19 42  1  0  0  0  0
 20 21  2  0  0  0  0
 20 48  1  0  0  0  0
 22 23  1  0  0  0  0
 23 24  1  0  0  0  0
 23 43  1  0  0  0  0
 23 44  1  0  0  0  0
 24 45  1  0  0  0  0
 24 46  1  0  0  0  0
 24 47  1  0  0  0  0
 49 50  1  0  0  0  0
M  CHG  2  48  -1  49   1
M  END
$$$$
ZINC03868923
  -OEChem-08230709463D

 55 57  0     1  0  0  0  0  0999 V2000
    1.6102    3.3632    7.8595 C   0  0  0  0  0  0  0  0  0  0  0  0
    1.1280    2.2851    6.8868 C   0  0  0  0  0  0  0  0  0  0  0  0
    1.7643    2.5149    5.5145 C   0  0  1  0  0  0  0  0  0  0  0  0
    1.5495    3.5297    5.1797 H   0  0  0  0  0  0  0  0  0  0  0  0
    3.2786    2.3209    5.6155 C   0  0  0  0  0  0  0  0  0  0  0  0
    1.1965    1.5291    4.5261 C   0  0  0  0  0  0  0  0  0  0  0  0
    1.3458    0.1746    4.7406 C   0  0  0  0  0  0  0  0  0  0  0  0
    0.8208   -0.7363    3.8259 C   0  0  0  0  0  0  0  0  0  0  0  0
    0.1461   -0.2753    2.6966 C   0  0  0  0  0  0  0  0  0  0  0  0
    0.0000    1.0800    2.4877 C   0  0  0  0  0  0  0  0  0  0  0  0
    0.5288    1.9851    3.3980 C   0  0  0  0  0  0  0  0  0  0  0  0
    0.3877    3.3202    3.1868 O   0  0  0  0  0  0  0  0  0  0  0  0
   -0.7749    3.9445    3.7350 C   0  0  0  0  0  0  0  0  0  0  0  0
   -0.7288    1.5792    1.2668 C   0  0  1  0  0  0  0  0  0  0  0  0
   -0.7436    2.6691    1.2728 H   0  0  0  0  0  0  0  0  0  0  0  0
   -0.0127    1.0858    0.0080 C   0  0  0  0  0  0  0  0  0  0  0  0
   -2.1642    1.0497    1.2777 C   0  0  0  0  0  0  0  0  0  0  0  0
   -2.9403    1.6557    0.1066 C   0  0  0  0  0  0  0  0  0  0  0  0
    0.9801   -2.1938    4.0534 C   0  0  0  0  0  0  0  0  0  0  0  0
    1.6154   -2.7706    5.1019 C   0  0  0  0  0  0  0  0  0  0  0  0
    1.5345   -4.1493    4.9361 N   0  0  0  0  0  0  0  0  0  0  0  0
    1.9437   -5.2874    5.5966 C   0  0  0  0  0  0  0  0  0  0  0  0
    1.6745   -6.4958    5.1050 C   0  0  0  0  0  0  0  0  0  0  0  0
    0.7850   -6.0960    3.6087 S   0  0  0  0  0  0  0  0  0  0  0  0
    0.8462   -4.3260    3.7641 C   0  0  0  0  0  0  0  0  0  0  0  0
    0.5227   -3.1757    3.2493 N   0  0  0  0  0  0  0  0  0  0  0  0
    2.0290   -7.8490    5.6655 C   0  0  0  0  0  0  0  0  0  0  0  0
    0.9237   -8.3214    6.5746 C   0  0  0  0  0  0  0  0  0  0  0  0
   -0.0517   -7.6301    6.7493 O   0  0  0  0  0  0  0  0  0  0  0  0
    2.6953    3.3127    7.9491 H   0  0  0  0  0  0  0  0  0  0  0  0
    1.3218    4.3455    7.4852 H   0  0  0  0  0  0  0  0  0  0  0  0
    1.1569    3.1995    8.8371 H   0  0  0  0  0  0  0  0  0  0  0  0
    0.0429    2.3356    6.7972 H   0  0  0  0  0  0  0  0  0  0  0  0
    1.4164    1.3028    7.2611 H   0  0  0  0  0  0  0  0  0  0  0  0
    3.4934    1.3061    5.9503 H   0  0  0  0  0  0  0  0  0  0  0  0
    3.7319    2.4846    4.6379 H   0  0  0  0  0  0  0  0  0  0  0  0
    3.6893    3.0339    6.3304 H   0  0  0  0  0  0  0  0  0  0  0  0
    1.8694   -0.1796    5.6163 H   0  0  0  0  0  0  0  0  0  0  0  0
   -0.2616   -0.9788    1.9858 H   0  0  0  0  0  0  0  0  0  0  0  0
   -0.7642    5.0075    3.4943 H   0  0  0  0  0  0  0  0  0  0  0  0
   -1.6680    3.4850    3.3115 H   0  0  0  0  0  0  0  0  0  0  0  0
   -0.7794    3.8172    4.8176 H   0  0  0  0  0  0  0  0  0  0  0  0
    0.0021   -0.0041    0.0020 H   0  0  0  0  0  0  0  0  0  0  0  0
    1.0099    1.4631    0.0003 H   0  0  0  0  0  0  0  0  0  0  0  0
   -0.5399    1.4469   -0.8751 H   0  0  0  0  0  0  0  0  0  0  0  0
   -2.1517   -0.0361    1.1822 H   0  0  0  0  0  0  0  0  0  0  0  0
   -2.6465    1.3263    2.2152 H   0  0  0  0  0  0  0  0  0  0  0  0
   -2.4580    1.3790   -0.8309 H   0  0  0  0  0  0  0  0  0  0  0  0
   -3.9629    1.2784    0.1144 H   0  0  0  0  0  0  0  0  0  0  0  0
   -2.9529    2.7414    0.2022 H   0  0  0  0  0  0  0  0  0  0  0  0
    2.0954   -2.2537    5.9197 H   0  0  0  0  0  0  0  0  0  0  0  0
    2.4891   -5.1986    6.5245 H   0  0  0  0  0  0  0  0  0  0  0  0
    2.1556   -8.5590    4.8482 H   0  0  0  0  0  0  0  0  0  0  0  0
    2.9581   -7.7762    6.2307 H   0  0  0  0  0  0  0  0  0  0  0  0
    1.0230   -9.5101    7.1901 O   0  5  0  0  0  0  0  0  0  0  0  0
  1  2  1  0  0  0  0
  1 30  1  0  0  0  0
  1 31  1  0  0  0  0
  1 32  1  0  0  0  0
  2  3  1  0  0  0  0
  2 33  1  0  0  0  0
  2 34  1  0  0  0  0
  3  4  1  0  0  0  0
  3  5  1  0  0  0  0
  3  6  1  0  0  0  0
  5 35  1  0  0  0  0
  5 36  1  0  0  0  0
  5 37  1  0  0  0  0
  6 11  2  0  0  0  0
  6  7  1  0  0  0  0
  7  8  2  0  0  0  0
  7 38  1  0  0  0  0
  8  9  1  0  0  0  0
  8 19  1  0  0  0  0
  9 10  2  0  0  0  0
  9 39  1  0  0  0  0
 10 11  1  0  0  0  0
 10 14  1  0  0  0  0
 11 12  1  0  0  0  0
 12 13  1  0  0  0  0
 13 40  1  0  0  0  0
 13 41  1  0  0  0  0
 13 42  1  0  0  0  0
 14 15  1  0  0  0  0
 14 16  1  0  0  0  0
 14 17  1  0  0  0  0
 16 43  1  0  0  0  0
 16 44  1  0  0  0  0
 16 45  1  0  0  0  0
 17 18  1  0  0  0  0
 17 46  1  0  0  0  0
 17 47  1  0  0  0  0
 18 48  1  0  0  0  0
 18 49  1  0  0  0  0
 18 50  1  0  0  0  0
 19 26  1  0  0  0  0
 19 20  2  0  0  0  0
 20 21  1  0  0  0  0
 20 51  1  0  0  0  0
 21 25  1  0  0  0  0
 21 22  1  0  0  0  0
 22 23  2  0  0  0  0
 22 52  1  0  0  0  0
 23 24  1  0  0  0  0
 23 27  1  0  0  0  0
 24 25  1  0  0  0  0
 25 26  2  0  0  0  0
 27 28  1  0  0  0  0
 27 53  1  0  0  0  0
 27 54  1  0  0  0  0
 28 29  2  0  0  0  0
 28 55  1  0  0  0  0
M  CHG  1  55  -1
M  END
$$$$
ZINC03868923
  -OEChem-08230709463D

 56 58  0     1  0  0  0  0  0999 V2000
    1.6102    3.3632    7.8595 C   0  0  0  0  0  0  0  0  0  0  0  0
    1.1280    2.2851    6.8868 C   0  0  0  0  0  0  0  0  0  0  0  0
    1.7643    2.5149    5.5145 C   0  0  1  0  0  0  0  0  0  0  0  0
    1.5495    3.5297    5.1797 H   0  0  0  0  0  0  0  0  0  0  0  0
    3.2786    2.3209    5.6155 C   0  0  0  0  0  0  0  0  0  0  0  0
    1.1965    1.5291    4.5261 C   0  0  0  0  0  0  0  0  0  0  0  0
    1.3458    0.1746    4.7406 C   0  0  0  0  0  0  0  0  0  0  0  0
    0.8208   -0.7363    3.8259 C   0  0  0  0  0  0  0  0  0  0  0  0
    0.1461   -0.2753    2.6966 C   0  0  0  0  0  0  0  0  0  0  0  0
    0.0000    1.0800    2.4877 C   0  0  0  0  0  0  0  0  0  0  0  0
    0.5288    1.9851    3.3980 C   0  0  0  0  0  0  0  0  0  0  0  0
    0.3877    3.3202    3.1868 O   0  0  0  0  0  0  0  0  0  0  0  0
   -0.7749    3.9445    3.7350 C   0  0  0  0  0  0  0  0  0  0  0  0
   -0.7288    1.5792    1.2668 C   0  0  1  0  0  0  0  0  0  0  0  0
   -0.7436    2.6691    1.2728 H   0  0  0  0  0  0  0  0  0  0  0  0
   -0.0127    1.0858    0.0080 C   0  0  0  0  0  0  0  0  0  0  0  0
   -2.1642    1.0497    1.2777 C   0  0  0  0  0  0  0  0  0  0  0  0
   -2.9403    1.6557    0.1066 C   0  0  0  0  0  0  0  0  0  0  0  0
    0.9801   -2.1938    4.0534 C   0  0  0  0  0  0  0  0  0  0  0  0
    1.6154   -2.7706    5.1019 C   0  0  0  0  0  0  0  0  0  0  0  0
    1.5345   -4.1493    4.9361 N   0  0  0  0  0  0  0  0  0  0  0  0
    1.9437   -5.2874    5.5966 C   0  0  0  0  0  0  0  0  0  0  0  0
    1.6745   -6.4958    5.1050 C   0  0  0  0  0  0  0  0  0  0  0  0
    0.7850   -6.0960    3.6087 S   0  0  0  0  0  0  0  0  0  0  0  0
    0.8462   -4.3260    3.7641 C   0  0  0  0  0  0  0  0  0  0  0  0
    2.0290   -7.8490    5.6655 C   0  0  0  0  0  0  0  0  0  0  0  0
    0.9237   -8.3214    6.5746 C   0  0  0  0  0  0  0  0  0  0  0  0
   -0.0517   -7.6301    6.7493 O   0  0  0  0  0  0  0  0  0  0  0  0
    2.6953    3.3127    7.9491 H   0  0  0  0  0  0  0  0  0  0  0  0
    1.3218    4.3455    7.4852 H   0  0  0  0  0  0  0  0  0  0  0  0
    1.1569    3.1995    8.8371 H   0  0  0  0  0  0  0  0  0  0  0  0
    0.0429    2.3356    6.7972 H   0  0  0  0  0  0  0  0  0  0  0  0
    1.4164    1.3028    7.2611 H   0  0  0  0  0  0  0  0  0  0  0  0
    3.4934    1.3061    5.9503 H   0  0  0  0  0  0  0  0  0  0  0  0
    3.7319    2.4846    4.6379 H   0  0  0  0  0  0  0  0  0  0  0  0
    3.6893    3.0339    6.3304 H   0  0  0  0  0  0  0  0  0  0  0  0
    1.8694   -0.1796    5.6163 H   0  0  0  0  0  0  0  0  0  0  0  0
   -0.2616   -0.9788    1.9858 H   0  0  0  0  0  0  0  0  0  0  0  0
   -0.7642    5.0075    3.4943 H   0  0  0  0  0  0  0  0  0  0  0  0
   -1.6680    3.4850    3.3115 H   0  0  0  0  0  0  0  0  0  0  0  0
   -0.7794    3.8172    4.8176 H   0  0  0  0  0  0  0  0  0  0  0  0
    0.0021   -0.0041    0.0020 H   0  0  0  0  0  0  0  0  0  0  0  0
    1.0099    1.4631    0.0003 H   0  0  0  0  0  0  0  0  0  0  0  0
   -0.5399    1.4469   -0.8751 H   0  0  0  0  0  0  0  0  0  0  0  0
   -2.1517   -0.0361    1.1822 H   0  0  0  0  0  0  0  0  0  0  0  0
   -2.6465    1.3263    2.2152 H   0  0  0  0  0  0  0  0  0  0  0  0
   -2.4580    1.3790   -0.8309 H   0  0  0  0  0  0  0  0  0  0  0  0
   -3.9629    1.2784    0.1144 H   0  0  0  0  0  0  0  0  0  0  0  0
   -2.9529    2.7414    0.2022 H   0  0  0  0  0  0  0  0  0  0  0  0
    2.0954   -2.2537    5.9197 H   0  0  0  0  0  0  0  0  0  0  0  0
    2.4891   -5.1986    6.5245 H   0  0  0  0  0  0  0  0  0  0  0  0
    2.1556   -8.5590    4.8482 H   0  0  0  0  0  0  0  0  0  0  0  0
    2.9581   -7.7762    6.2307 H   0  0  0  0  0  0  0  0  0  0  0  0
    1.0230   -9.5101    7.1901 O   0  5  0  0  0  0  0  0  0  0  0  0
    0.5246   -3.1762    3.2525 N   0  3  0  0  0  0  0  0  0  0  0  0
    0.0059   -3.0382    2.3772 H   0  0  0  0  0  0  0  0  0  0  0  0
  1  2  1  0  0  0  0
  1 29  1  0  0  0  0
  1 30  1  0  0  0  0
  1 31  1  0  0  0  0
  2  3  1  0  0  0  0
  2 32  1  0  0  0  0
  2 33  1  0  0  0  0
  3  4  1  0  0  0  0
  3  5  1  0  0  0  0
  3  6  1  0  0  0  0
  5 34  1  0  0  0  0
  5 35  1  0  0  0  0
  5 36  1  0  0  0  0
  6 11  2  0  0  0  0
  6  7  1  0  0  0  0
  7  8  2  0  0  0  0
  7 37  1  0  0  0  0
  8  9  1  0  0  0  0
  8 19  1  0  0  0  0
  9 10  2  0  0  0  0
  9 38  1  0  0  0  0
 10 11  1  0  0  0  0
 10 14  1  0  0  0  0
 11 12  1  0  0  0  0
 12 13  1  0  0  0  0
 13 39  1  0  0  0  0
 13 40  1  0  0  0  0
 13 41  1  0  0  0  0
 14 15  1  0  0  0  0
 14 16  1  0  0  0  0
 14 17  1  0  0  0  0
 16 42  1  0  0  0  0
 16 43  1  0  0  0  0
 16 44  1  0  0  0  0
 17 18  1  0  0  0  0
 17 45  1  0  0  0  0
 17 46  1  0  0  0  0
 18 47  1  0  0  0  0
 18 48  1  0  0  0  0
 18 49  1  0  0  0  0
 19 20  2  0  0  0  0
 19 55  1  0  0  0  0
 20 21  1  0  0  0  0
 20 50  1  0  0  0  0
 21 25  1  0  0  0  0
 21 22  1  0  0  0  0
 22 23  2  0  0  0  0
 22 51  1  0  0  0  0
 23 24  1  0  0  0  0
 23 26  1  0  0  0  0
 24 25  1  0  0  0  0
 25 55  2  0  0  0  0
 26 27  1  0  0  0  0
 26 52  1  0  0  0  0
 26 53  1  0  0  0  0
 27 28  2  0  0  0  0
 27 54  1  0  0  0  0
 55 56  1  0  0  0  0
M  CHG  2  54  -1  55   1
M  END
$$$$
ZINC03868924
  -OEChem-08230709463D

 55 57  0     1  0  0  0  0  0999 V2000
    2.2763  -12.0475   -2.4629 C   0  0  0  0  0  0  0  0  0  0  0  0
    1.9951  -10.9257   -1.4612 C   0  0  0  0  0  0  0  0  0  0  0  0
    0.8071  -11.3152   -0.5794 C   0  0  2  0  0  0  0  0  0  0  0  0
    1.0041  -12.2786   -0.1090 H   0  0  0  0  0  0  0  0  0  0  0  0
   -0.4547  -11.4159   -1.4389 C   0  0  0  0  0  0  0  0  0  0  0  0
    0.6071  -10.2679    0.4856 C   0  0  0  0  0  0  0  0  0  0  0  0
    0.3427   -8.9625    0.1270 C   0  0  0  0  0  0  0  0  0  0  0  0
    0.1584   -7.9943    1.1125 C   0  0  0  0  0  0  0  0  0  0  0  0
    0.2472   -8.3476    2.4578 C   0  0  0  0  0  0  0  0  0  0  0  0
    0.5062   -9.6558    2.8101 C   0  0  0  0  0  0  0  0  0  0  0  0
    0.6898  -10.6177    1.8263 C   0  0  0  0  0  0  0  0  0  0  0  0
    0.9505  -11.9048    2.1765 O   0  0  0  0  0  0  0  0  0  0  0  0
    2.3234  -12.2694    2.3318 C   0  0  0  0  0  0  0  0  0  0  0  0
    0.5963  -10.0400    4.2645 C   0  0  1  0  0  0  0  0  0  0  0  0
    0.8103  -11.1056    4.3463 H   0  0  0  0  0  0  0  0  0  0  0  0
    1.7168   -9.2420    4.9343 C   0  0  0  0  0  0  0  0  0  0  0  0
   -0.7330   -9.7322    4.9566 C   0  0  0  0  0  0  0  0  0  0  0  0
   -0.6849  -10.2357    6.4005 C   0  0  0  0  0  0  0  0  0  0  0  0
   -0.1258   -6.5891    0.7302 C   0  0  0  0  0  0  0  0  0  0  0  0
   -0.3241   -5.5566    1.5849 C   0  0  0  0  0  0  0  0  0  0  0  0
   -0.5581   -4.4176    0.8215 N   0  0  0  0  0  0  0  0  0  0  0  0
   -0.8229   -3.0811    1.0281 C   0  0  0  0  0  0  0  0  0  0  0  0
   -0.9972   -2.2530   -0.0005 C   0  0  0  0  0  0  0  0  0  0  0  0
   -0.7977   -3.3500   -1.3957 S   0  0  0  0  0  0  0  0  0  0  0  0
   -0.4851   -4.8415   -0.4799 C   0  0  0  0  0  0  0  0  0  0  0  0
   -0.2312   -6.1166   -0.5290 N   0  0  0  0  0  0  0  0  0  0  0  0
   -1.2926   -0.7753    0.0102 C   0  0  0  0  0  0  0  0  0  0  0  0
    0.0021   -0.0041    0.0020 C   0  0  0  0  0  0  0  0  0  0  0  0
    1.0565   -0.5939   -0.0112 O   0  0  0  0  0  0  0  0  0  0  0  0
    1.3969  -12.2059   -3.0872 H   0  0  0  0  0  0  0  0  0  0  0  0
    3.1227  -11.7700   -3.0911 H   0  0  0  0  0  0  0  0  0  0  0  0
    2.5094  -12.9658   -1.9240 H   0  0  0  0  0  0  0  0  0  0  0  0
    1.7620  -10.0074   -2.0001 H   0  0  0  0  0  0  0  0  0  0  0  0
    2.8745  -10.7673   -0.8368 H   0  0  0  0  0  0  0  0  0  0  0  0
   -1.3011  -11.6934   -0.8107 H   0  0  0  0  0  0  0  0  0  0  0  0
   -0.6517  -10.4525   -1.9092 H   0  0  0  0  0  0  0  0  0  0  0  0
   -0.3101  -12.1735   -2.2092 H   0  0  0  0  0  0  0  0  0  0  0  0
    0.2781   -8.6910   -0.9163 H   0  0  0  0  0  0  0  0  0  0  0  0
    0.1092   -7.5987    3.2236 H   0  0  0  0  0  0  0  0  0  0  0  0
    2.8506  -12.1093    1.3913 H   0  0  0  0  0  0  0  0  0  0  0  0
    2.7763  -11.6564    3.1111 H   0  0  0  0  0  0  0  0  0  0  0  0
    2.3907  -13.3208    2.6116 H   0  0  0  0  0  0  0  0  0  0  0  0
    1.7819   -9.5198    5.9863 H   0  0  0  0  0  0  0  0  0  0  0  0
    2.6638   -9.4612    4.4413 H   0  0  0  0  0  0  0  0  0  0  0  0
    1.5028   -8.1763    4.8526 H   0  0  0  0  0  0  0  0  0  0  0  0
   -0.9040   -8.6557    4.9527 H   0  0  0  0  0  0  0  0  0  0  0  0
   -1.5435  -10.2306    4.4248 H   0  0  0  0  0  0  0  0  0  0  0  0
   -1.6320  -10.0164    6.8936 H   0  0  0  0  0  0  0  0  0  0  0  0
   -0.5140  -11.3122    6.4044 H   0  0  0  0  0  0  0  0  0  0  0  0
    0.1255   -9.7373    6.9323 H   0  0  0  0  0  0  0  0  0  0  0  0
   -0.3042   -5.6086    2.6634 H   0  0  0  0  0  0  0  0  0  0  0  0
   -0.8895   -2.7003    2.0366 H   0  0  0  0  0  0  0  0  0  0  0  0
   -1.8592   -0.5245    0.9070 H   0  0  0  0  0  0  0  0  0  0  0  0
   -1.8762   -0.5150   -0.8728 H   0  0  0  0  0  0  0  0  0  0  0  0
   -0.0161    1.3381    0.0094 O   0  5  0  0  0  0  0  0  0  0  0  0
  1  2  1  0  0  0  0
  1 30  1  0  0  0  0
  1 31  1  0  0  0  0
  1 32  1  0  0  0  0
  2  3  1  0  0  0  0
  2 33  1  0  0  0  0
  2 34  1  0  0  0  0
  3  4  1  0  0  0  0
  3  5  1  0  0  0  0
  3  6  1  0  0  0  0
  5 35  1  0  0  0  0
  5 36  1  0  0  0  0
  5 37  1  0  0  0  0
  6 11  2  0  0  0  0
  6  7  1  0  0  0  0
  7  8  2  0  0  0  0
  7 38  1  0  0  0  0
  8  9  1  0  0  0  0
  8 19  1  0  0  0  0
  9 10  2  0  0  0  0
  9 39  1  0  0  0  0
 10 11  1  0  0  0  0
 10 14  1  0  0  0  0
 11 12  1  0  0  0  0
 12 13  1  0  0  0  0
 13 40  1  0  0  0  0
 13 41  1  0  0  0  0
 13 42  1  0  0  0  0
 14 15  1  0  0  0  0
 14 16  1  0  0  0  0
 14 17  1  0  0  0  0
 16 43  1  0  0  0  0
 16 44  1  0  0  0  0
 16 45  1  0  0  0  0
 17 18  1  0  0  0  0
 17 46  1  0  0  0  0
 17 47  1  0  0  0  0
 18 48  1  0  0  0  0
 18 49  1  0  0  0  0
 18 50  1  0  0  0  0
 19 26  1  0  0  0  0
 19 20  2  0  0  0  0
 20 21  1  0  0  0  0
 20 51  1  0  0  0  0
 21 25  1  0  0  0  0
 21 22  1  0  0  0  0
 22 23  2  0  0  0  0
 22 52  1  0  0  0  0
 23 24  1  0  0  0  0
 23 27  1  0  0  0  0
 24 25  1  0  0  0  0
 25 26  2  0  0  0  0
 27 28  1  0  0  0  0
 27 53  1  0  0  0  0
 27 54  1  0  0  0  0
 28 29  2  0  0  0  0
 28 55  1  0  0  0  0
M  CHG  1  55  -1
M  END
$$$$
ZINC03868924
  -OEChem-08230709463D

 56 58  0     1  0  0  0  0  0999 V2000
    2.2763  -12.0475   -2.4629 C   0  0  0  0  0  0  0  0  0  0  0  0
    1.9951  -10.9257   -1.4612 C   0  0  0  0  0  0  0  0  0  0  0  0
    0.8071  -11.3152   -0.5794 C   0  0  2  0  0  0  0  0  0  0  0  0
    1.0041  -12.2786   -0.1090 H   0  0  0  0  0  0  0  0  0  0  0  0
   -0.4547  -11.4159   -1.4389 C   0  0  0  0  0  0  0  0  0  0  0  0
    0.6071  -10.2679    0.4856 C   0  0  0  0  0  0  0  0  0  0  0  0
    0.3427   -8.9625    0.1270 C   0  0  0  0  0  0  0  0  0  0  0  0
    0.1584   -7.9943    1.1125 C   0  0  0  0  0  0  0  0  0  0  0  0
    0.2472   -8.3476    2.4578 C   0  0  0  0  0  0  0  0  0  0  0  0
    0.5062   -9.6558    2.8101 C   0  0  0  0  0  0  0  0  0  0  0  0
    0.6898  -10.6177    1.8263 C   0  0  0  0  0  0  0  0  0  0  0  0
    0.9505  -11.9048    2.1765 O   0  0  0  0  0  0  0  0  0  0  0  0
    2.3234  -12.2694    2.3318 C   0  0  0  0  0  0  0  0  0  0  0  0
    0.5963  -10.0400    4.2645 C   0  0  1  0  0  0  0  0  0  0  0  0
    0.8103  -11.1056    4.3463 H   0  0  0  0  0  0  0  0  0  0  0  0
    1.7168   -9.2420    4.9343 C   0  0  0  0  0  0  0  0  0  0  0  0
   -0.7330   -9.7322    4.9566 C   0  0  0  0  0  0  0  0  0  0  0  0
   -0.6849  -10.2357    6.4005 C   0  0  0  0  0  0  0  0  0  0  0  0
   -0.1258   -6.5891    0.7302 C   0  0  0  0  0  0  0  0  0  0  0  0
   -0.3241   -5.5566    1.5849 C   0  0  0  0  0  0  0  0  0  0  0  0
   -0.5581   -4.4176    0.8215 N   0  0  0  0  0  0  0  0  0  0  0  0
   -0.8229   -3.0811    1.0281 C   0  0  0  0  0  0  0  0  0  0  0  0
   -0.9972   -2.2530   -0.0005 C   0  0  0  0  0  0  0  0  0  0  0  0
   -0.7977   -3.3500   -1.3957 S   0  0  0  0  0  0  0  0  0  0  0  0
   -0.4851   -4.8415   -0.4799 C   0  0  0  0  0  0  0  0  0  0  0  0
   -1.2926   -0.7753    0.0102 C   0  0  0  0  0  0  0  0  0  0  0  0
    0.0021   -0.0041    0.0020 C   0  0  0  0  0  0  0  0  0  0  0  0
    1.0565   -0.5939   -0.0112 O   0  0  0  0  0  0  0  0  0  0  0  0
    1.3969  -12.2059   -3.0872 H   0  0  0  0  0  0  0  0  0  0  0  0
    3.1227  -11.7700   -3.0911 H   0  0  0  0  0  0  0  0  0  0  0  0
    2.5094  -12.9658   -1.9240 H   0  0  0  0  0  0  0  0  0  0  0  0
    1.7620  -10.0074   -2.0001 H   0  0  0  0  0  0  0  0  0  0  0  0
    2.8745  -10.7673   -0.8368 H   0  0  0  0  0  0  0  0  0  0  0  0
   -1.3011  -11.6934   -0.8107 H   0  0  0  0  0  0  0  0  0  0  0  0
   -0.6517  -10.4525   -1.9092 H   0  0  0  0  0  0  0  0  0  0  0  0
   -0.3101  -12.1735   -2.2092 H   0  0  0  0  0  0  0  0  0  0  0  0
    0.2781   -8.6910   -0.9163 H   0  0  0  0  0  0  0  0  0  0  0  0
    0.1092   -7.5987    3.2236 H   0  0  0  0  0  0  0  0  0  0  0  0
    2.8506  -12.1093    1.3913 H   0  0  0  0  0  0  0  0  0  0  0  0
    2.7763  -11.6564    3.1111 H   0  0  0  0  0  0  0  0  0  0  0  0
    2.3907  -13.3208    2.6116 H   0  0  0  0  0  0  0  0  0  0  0  0
    1.7819   -9.5198    5.9863 H   0  0  0  0  0  0  0  0  0  0  0  0
    2.6638   -9.4612    4.4413 H   0  0  0  0  0  0  0  0  0  0  0  0
    1.5028   -8.1763    4.8526 H   0  0  0  0  0  0  0  0  0  0  0  0
   -0.9040   -8.6557    4.9527 H   0  0  0  0  0  0  0  0  0  0  0  0
   -1.5435  -10.2306    4.4248 H   0  0  0  0  0  0  0  0  0  0  0  0
   -1.6320  -10.0164    6.8936 H   0  0  0  0  0  0  0  0  0  0  0  0
   -0.5140  -11.3122    6.4044 H   0  0  0  0  0  0  0  0  0  0  0  0
    0.1255   -9.7373    6.9323 H   0  0  0  0  0  0  0  0  0  0  0  0
   -0.3042   -5.6086    2.6634 H   0  0  0  0  0  0  0  0  0  0  0  0
   -0.8895   -2.7003    2.0366 H   0  0  0  0  0  0  0  0  0  0  0  0
   -1.8592   -0.5245    0.9070 H   0  0  0  0  0  0  0  0  0  0  0  0
   -1.8762   -0.5150   -0.8728 H   0  0  0  0  0  0  0  0  0  0  0  0
   -0.0161    1.3381    0.0094 O   0  5  0  0  0  0  0  0  0  0  0  0
   -0.2316   -6.1146   -0.5258 N   0  3  0  0  0  0  0  0  0  0  0  0
   -0.1283   -6.6704   -1.3828 H   0  0  0  0  0  0  0  0  0  0  0  0
  1  2  1  0  0  0  0
  1 29  1  0  0  0  0
  1 30  1  0  0  0  0
  1 31  1  0  0  0  0
  2  3  1  0  0  0  0
  2 32  1  0  0  0  0
  2 33  1  0  0  0  0
  3  4  1  0  0  0  0
  3  5  1  0  0  0  0
  3  6  1  0  0  0  0
  5 34  1  0  0  0  0
  5 35  1  0  0  0  0
  5 36  1  0  0  0  0
  6 11  2  0  0  0  0
  6  7  1  0  0  0  0
  7  8  2  0  0  0  0
  7 37  1  0  0  0  0
  8  9  1  0  0  0  0
  8 19  1  0  0  0  0
  9 10  2  0  0  0  0
  9 38  1  0  0  0  0
 10 11  1  0  0  0  0
 10 14  1  0  0  0  0
 11 12  1  0  0  0  0
 12 13  1  0  0  0  0
 13 39  1  0  0  0  0
 13 40  1  0  0  0  0
 13 41  1  0  0  0  0
 14 15  1  0  0  0  0
 14 16  1  0  0  0  0
 14 17  1  0  0  0  0
 16 42  1  0  0  0  0
 16 43  1  0  0  0  0
 16 44  1  0  0  0  0
 17 18  1  0  0  0  0
 17 45  1  0  0  0  0
 17 46  1  0  0  0  0
 18 47  1  0  0  0  0
 18 48  1  0  0  0  0
 18 49  1  0  0  0  0
 19 20  2  0  0  0  0
 19 55  1  0  0  0  0
 20 21  1  0  0  0  0
 20 50  1  0  0  0  0
 21 25  1  0  0  0  0
 21 22  1  0  0  0  0
 22 23  2  0  0  0  0
 22 51  1  0  0  0  0
 23 24  1  0  0  0  0
 23 26  1  0  0  0  0
 24 25  1  0  0  0  0
 25 55  2  0  0  0  0
 26 27  1  0  0  0  0
 26 52  1  0  0  0  0
 26 53  1  0  0  0  0
 27 28  2  0  0  0  0
 27 54  1  0  0  0  0
 55 56  1  0  0  0  0
M  CHG  2  54  -1  55   1
M  END
$$$$
ZINC03868925
  -OEChem-08230709463D

 55 57  0     1  0  0  0  0  0999 V2000
   -0.3007  -12.5628   -2.4397 C   0  0  0  0  0  0  0  0  0  0  0  0
   -0.4552  -11.4157   -1.4391 C   0  0  0  0  0  0  0  0  0  0  0  0
    0.8063  -11.3154   -0.5793 C   0  0  1  0  0  0  0  0  0  0  0  0
    1.0030  -12.2788   -0.1090 H   0  0  0  0  0  0  0  0  0  0  0  0
    1.9947  -10.9262   -1.4609 C   0  0  0  0  0  0  0  0  0  0  0  0
    0.6065  -10.2680    0.4856 C   0  0  0  0  0  0  0  0  0  0  0  0
    0.3425   -8.9625    0.1270 C   0  0  0  0  0  0  0  0  0  0  0  0
    0.1578   -7.9944    1.1125 C   0  0  0  0  0  0  0  0  0  0  0  0
    0.2463   -8.3478    2.4578 C   0  0  0  0  0  0  0  0  0  0  0  0
    0.5054   -9.6560    2.8101 C   0  0  0  0  0  0  0  0  0  0  0  0
    0.6888  -10.6179    1.8263 C   0  0  0  0  0  0  0  0  0  0  0  0
    0.9500  -11.9049    2.1765 O   0  0  0  0  0  0  0  0  0  0  0  0
    2.3230  -12.2689    2.3324 C   0  0  0  0  0  0  0  0  0  0  0  0
    0.5956  -10.0401    4.2645 C   0  0  2  0  0  0  0  0  0  0  0  0
    0.8095  -11.1058    4.3463 H   0  0  0  0  0  0  0  0  0  0  0  0
   -0.7337   -9.7323    4.9567 C   0  0  0  0  0  0  0  0  0  0  0  0
    1.7161   -9.2421    4.9343 C   0  0  0  0  0  0  0  0  0  0  0  0
    1.8907   -9.7204    6.3771 C   0  0  0  0  0  0  0  0  0  0  0  0
   -0.1264   -6.5893    0.7302 C   0  0  0  0  0  0  0  0  0  0  0  0
   -0.3245   -5.5567    1.5849 C   0  0  0  0  0  0  0  0  0  0  0  0
   -0.5581   -4.4176    0.8215 N   0  0  0  0  0  0  0  0  0  0  0  0
   -0.8229   -3.0811    1.0281 C   0  0  0  0  0  0  0  0  0  0  0  0
   -0.9972   -2.2530   -0.0005 C   0  0  0  0  0  0  0  0  0  0  0  0
   -0.7977   -3.3500   -1.3957 S   0  0  0  0  0  0  0  0  0  0  0  0
   -0.4851   -4.8415   -0.4799 C   0  0  0  0  0  0  0  0  0  0  0  0
   -0.2315   -6.1167   -0.5289 N   0  0  0  0  0  0  0  0  0  0  0  0
   -1.2926   -0.7753    0.0102 C   0  0  0  0  0  0  0  0  0  0  0  0
    0.0021   -0.0041    0.0020 C   0  0  0  0  0  0  0  0  0  0  0  0
    1.0565   -0.5939   -0.0112 O   0  0  0  0  0  0  0  0  0  0  0  0
    0.5610  -12.3730   -3.0797 H   0  0  0  0  0  0  0  0  0  0  0  0
   -0.1535  -13.4983   -1.9000 H   0  0  0  0  0  0  0  0  0  0  0  0
   -1.1994  -12.6342   -3.0522 H   0  0  0  0  0  0  0  0  0  0  0  0
   -1.3170  -11.6054   -0.7992 H   0  0  0  0  0  0  0  0  0  0  0  0
   -0.6024  -10.4802   -1.9788 H   0  0  0  0  0  0  0  0  0  0  0  0
    2.8935  -10.8547   -0.8484 H   0  0  0  0  0  0  0  0  0  0  0  0
    2.1392  -11.6837   -2.2312 H   0  0  0  0  0  0  0  0  0  0  0  0
    1.7980   -9.9627   -1.9312 H   0  0  0  0  0  0  0  0  0  0  0  0
    0.2793   -8.6907   -0.9163 H   0  0  0  0  0  0  0  0  0  0  0  0
    0.1084   -7.5989    3.2237 H   0  0  0  0  0  0  0  0  0  0  0  0
    2.3907  -13.3203    2.6121 H   0  0  0  0  0  0  0  0  0  0  0  0
    2.8504  -12.1085    1.3921 H   0  0  0  0  0  0  0  0  0  0  0  0
    2.7753  -11.6558    3.1118 H   0  0  0  0  0  0  0  0  0  0  0  0
   -1.5320  -10.3008    4.4796 H   0  0  0  0  0  0  0  0  0  0  0  0
   -0.6685  -10.0101    6.0087 H   0  0  0  0  0  0  0  0  0  0  0  0
   -0.9477   -8.6666    4.8750 H   0  0  0  0  0  0  0  0  0  0  0  0
    2.6465   -9.3923    4.3866 H   0  0  0  0  0  0  0  0  0  0  0  0
    1.4596   -8.1827    4.9312 H   0  0  0  0  0  0  0  0  0  0  0  0
    2.1472  -10.7797    6.3802 H   0  0  0  0  0  0  0  0  0  0  0  0
    2.6890   -9.1518    6.8542 H   0  0  0  0  0  0  0  0  0  0  0  0
    0.9603   -9.5702    6.9247 H   0  0  0  0  0  0  0  0  0  0  0  0
   -0.3044   -5.6086    2.6634 H   0  0  0  0  0  0  0  0  0  0  0  0
   -0.8895   -2.7004    2.0366 H   0  0  0  0  0  0  0  0  0  0  0  0
   -1.8592   -0.5245    0.9070 H   0  0  0  0  0  0  0  0  0  0  0  0
   -1.8762   -0.5150   -0.8728 H   0  0  0  0  0  0  0  0  0  0  0  0
   -0.0161    1.3381    0.0094 O   0  5  0  0  0  0  0  0  0  0  0  0
  1  2  1  0  0  0  0
  1 30  1  0  0  0  0
  1 31  1  0  0  0  0
  1 32  1  0  0  0  0
  2  3  1  0  0  0  0
  2 33  1  0  0  0  0
  2 34  1  0  0  0  0
  3  4  1  0  0  0  0
  3  5  1  0  0  0  0
  3  6  1  0  0  0  0
  5 35  1  0  0  0  0
  5 36  1  0  0  0  0
  5 37  1  0  0  0  0
  6 11  2  0  0  0  0
  6  7  1  0  0  0  0
  7  8  2  0  0  0  0
  7 38  1  0  0  0  0
  8  9  1  0  0  0  0
  8 19  1  0  0  0  0
  9 10  2  0  0  0  0
  9 39  1  0  0  0  0
 10 11  1  0  0  0  0
 10 14  1  0  0  0  0
 11 12  1  0  0  0  0
 12 13  1  0  0  0  0
 13 40  1  0  0  0  0
 13 41  1  0  0  0  0
 13 42  1  0  0  0  0
 14 15  1  0  0  0  0
 14 16  1  0  0  0  0
 14 17  1  0  0  0  0
 16 43  1  0  0  0  0
 16 44  1  0  0  0  0
 16 45  1  0  0  0  0
 17 18  1  0  0  0  0
 17 46  1  0  0  0  0
 17 47  1  0  0  0  0
 18 48  1  0  0  0  0
 18 49  1  0  0  0  0
 18 50  1  0  0  0  0
 19 26  1  0  0  0  0
 19 20  2  0  0  0  0
 20 21  1  0  0  0  0
 20 51  1  0  0  0  0
 21 25  1  0  0  0  0
 21 22  1  0  0  0  0
 22 23  2  0  0  0  0
 22 52  1  0  0  0  0
 23 24  1  0  0  0  0
 23 27  1  0  0  0  0
 24 25  1  0  0  0  0
 25 26  2  0  0  0  0
 27 28  1  0  0  0  0
 27 53  1  0  0  0  0
 27 54  1  0  0  0  0
 28 29  2  0  0  0  0
 28 55  1  0  0  0  0
M  CHG  1  55  -1
M  END
$$$$
ZINC03868925
  -OEChem-08230709463D

 56 58  0     1  0  0  0  0  0999 V2000
   -0.3007  -12.5628   -2.4397 C   0  0  0  0  0  0  0  0  0  0  0  0
   -0.4552  -11.4157   -1.4391 C   0  0  0  0  0  0  0  0  0  0  0  0
    0.8063  -11.3154   -0.5793 C   0  0  1  0  0  0  0  0  0  0  0  0
    1.0030  -12.2788   -0.1090 H   0  0  0  0  0  0  0  0  0  0  0  0
    1.9947  -10.9262   -1.4609 C   0  0  0  0  0  0  0  0  0  0  0  0
    0.6065  -10.2680    0.4856 C   0  0  0  0  0  0  0  0  0  0  0  0
    0.3425   -8.9625    0.1270 C   0  0  0  0  0  0  0  0  0  0  0  0
    0.1578   -7.9944    1.1125 C   0  0  0  0  0  0  0  0  0  0  0  0
    0.2463   -8.3478    2.4578 C   0  0  0  0  0  0  0  0  0  0  0  0
    0.5054   -9.6560    2.8101 C   0  0  0  0  0  0  0  0  0  0  0  0
    0.6888  -10.6179    1.8263 C   0  0  0  0  0  0  0  0  0  0  0  0
    0.9500  -11.9049    2.1765 O   0  0  0  0  0  0  0  0  0  0  0  0
    2.3230  -12.2689    2.3324 C   0  0  0  0  0  0  0  0  0  0  0  0
    0.5956  -10.0401    4.2645 C   0  0  2  0  0  0  0  0  0  0  0  0
    0.8095  -11.1058    4.3463 H   0  0  0  0  0  0  0  0  0  0  0  0
   -0.7337   -9.7323    4.9567 C   0  0  0  0  0  0  0  0  0  0  0  0
    1.7161   -9.2421    4.9343 C   0  0  0  0  0  0  0  0  0  0  0  0
    1.8907   -9.7204    6.3771 C   0  0  0  0  0  0  0  0  0  0  0  0
   -0.1264   -6.5893    0.7302 C   0  0  0  0  0  0  0  0  0  0  0  0
   -0.3245   -5.5567    1.5849 C   0  0  0  0  0  0  0  0  0  0  0  0
   -0.5581   -4.4176    0.8215 N   0  0  0  0  0  0  0  0  0  0  0  0
   -0.8229   -3.0811    1.0281 C   0  0  0  0  0  0  0  0  0  0  0  0
   -0.9972   -2.2530   -0.0005 C   0  0  0  0  0  0  0  0  0  0  0  0
   -0.7977   -3.3500   -1.3957 S   0  0  0  0  0  0  0  0  0  0  0  0
   -0.4851   -4.8415   -0.4799 C   0  0  0  0  0  0  0  0  0  0  0  0
   -1.2926   -0.7753    0.0102 C   0  0  0  0  0  0  0  0  0  0  0  0
    0.0021   -0.0041    0.0020 C   0  0  0  0  0  0  0  0  0  0  0  0
    1.0565   -0.5939   -0.0112 O   0  0  0  0  0  0  0  0  0  0  0  0
    0.5610  -12.3730   -3.0797 H   0  0  0  0  0  0  0  0  0  0  0  0
   -0.1535  -13.4983   -1.9000 H   0  0  0  0  0  0  0  0  0  0  0  0
   -1.1994  -12.6342   -3.0522 H   0  0  0  0  0  0  0  0  0  0  0  0
   -1.3170  -11.6054   -0.7992 H   0  0  0  0  0  0  0  0  0  0  0  0
   -0.6024  -10.4802   -1.9788 H   0  0  0  0  0  0  0  0  0  0  0  0
    2.8935  -10.8547   -0.8484 H   0  0  0  0  0  0  0  0  0  0  0  0
    2.1392  -11.6837   -2.2312 H   0  0  0  0  0  0  0  0  0  0  0  0
    1.7980   -9.9627   -1.9312 H   0  0  0  0  0  0  0  0  0  0  0  0
    0.2793   -8.6907   -0.9163 H   0  0  0  0  0  0  0  0  0  0  0  0
    0.1084   -7.5989    3.2237 H   0  0  0  0  0  0  0  0  0  0  0  0
    2.3907  -13.3203    2.6121 H   0  0  0  0  0  0  0  0  0  0  0  0
    2.8504  -12.1085    1.3921 H   0  0  0  0  0  0  0  0  0  0  0  0
    2.7753  -11.6558    3.1118 H   0  0  0  0  0  0  0  0  0  0  0  0
   -1.5320  -10.3008    4.4796 H   0  0  0  0  0  0  0  0  0  0  0  0
   -0.6685  -10.0101    6.0087 H   0  0  0  0  0  0  0  0  0  0  0  0
   -0.9477   -8.6666    4.8750 H   0  0  0  0  0  0  0  0  0  0  0  0
    2.6465   -9.3923    4.3866 H   0  0  0  0  0  0  0  0  0  0  0  0
    1.4596   -8.1827    4.9312 H   0  0  0  0  0  0  0  0  0  0  0  0
    2.1472  -10.7797    6.3802 H   0  0  0  0  0  0  0  0  0  0  0  0
    2.6890   -9.1518    6.8542 H   0  0  0  0  0  0  0  0  0  0  0  0
    0.9603   -9.5702    6.9247 H   0  0  0  0  0  0  0  0  0  0  0  0
   -0.3044   -5.6086    2.6634 H   0  0  0  0  0  0  0  0  0  0  0  0
   -0.8895   -2.7004    2.0366 H   0  0  0  0  0  0  0  0  0  0  0  0
   -1.8592   -0.5245    0.9070 H   0  0  0  0  0  0  0  0  0  0  0  0
   -1.8762   -0.5150   -0.8728 H   0  0  0  0  0  0  0  0  0  0  0  0
   -0.0161    1.3381    0.0094 O   0  5  0  0  0  0  0  0  0  0  0  0
   -0.2319   -6.1147   -0.5257 N   0  3  0  0  0  0  0  0  0  0  0  0
   -0.1286   -6.6706   -1.3828 H   0  0  0  0  0  0  0  0  0  0  0  0
  1  2  1  0  0  0  0
  1 29  1  0  0  0  0
  1 30  1  0  0  0  0
  1 31  1  0  0  0  0
  2  3  1  0  0  0  0
  2 32  1  0  0  0  0
  2 33  1  0  0  0  0
  3  4  1  0  0  0  0
  3  5  1  0  0  0  0
  3  6  1  0  0  0  0
  5 34  1  0  0  0  0
  5 35  1  0  0  0  0
  5 36  1  0  0  0  0
  6 11  2  0  0  0  0
  6  7  1  0  0  0  0
  7  8  2  0  0  0  0
  7 37  1  0  0  0  0
  8  9  1  0  0  0  0
  8 19  1  0  0  0  0
  9 10  2  0  0  0  0
  9 38  1  0  0  0  0
 10 11  1  0  0  0  0
 10 14  1  0  0  0  0
 11 12  1  0  0  0  0
 12 13  1  0  0  0  0
 13 39  1  0  0  0  0
 13 40  1  0  0  0  0
 13 41  1  0  0  0  0
 14 15  1  0  0  0  0
 14 16  1  0  0  0  0
 14 17  1  0  0  0  0
 16 42  1  0  0  0  0
 16 43  1  0  0  0  0
 16 44  1  0  0  0  0
 17 18  1  0  0  0  0
 17 45  1  0  0  0  0
 17 46  1  0  0  0  0
 18 47  1  0  0  0  0
 18 48  1  0  0  0  0
 18 49  1  0  0  0  0
 19 20  2  0  0  0  0
 19 55  1  0  0  0  0
 20 21  1  0  0  0  0
 20 50  1  0  0  0  0
 21 25  1  0  0  0  0
 21 22  1  0  0  0  0
 22 23  2  0  0  0  0
 22 51  1  0  0  0  0
 23 24  1  0  0  0  0
 23 26  1  0  0  0  0
 24 25  1  0  0  0  0
 25 55  2  0  0  0  0
 26 27  1  0  0  0  0
 26 52  1  0  0  0  0
 26 53  1  0  0  0  0
 27 28  2  0  0  0  0
 27 54  1  0  0  0  0
 55 56  1  0  0  0  0
M  CHG  2  54  -1  55   1
M  END
$$$$
ZINC03868926
  -OEChem-08230709463D

 55 57  0     1  0  0  0  0  0999 V2000
   -2.9403    1.6557    0.1066 C   0  0  0  0  0  0  0  0  0  0  0  0
   -2.1642    1.0497    1.2777 C   0  0  0  0  0  0  0  0  0  0  0  0
   -0.7288    1.5792    1.2668 C   0  0  2  0  0  0  0  0  0  0  0  0
   -0.7436    2.6691    1.2728 H   0  0  0  0  0  0  0  0  0  0  0  0
   -0.0127    1.0858    0.0080 C   0  0  0  0  0  0  0  0  0  0  0  0
    0.0000    1.0800    2.4877 C   0  0  0  0  0  0  0  0  0  0  0  0
    0.1461   -0.2758    2.6967 C   0  0  0  0  0  0  0  0  0  0  0  0
    0.8203   -0.7366    3.8259 C   0  0  0  0  0  0  0  0  0  0  0  0
    1.3450    0.1746    4.7411 C   0  0  0  0  0  0  0  0  0  0  0  0
    1.1957    1.5287    4.5266 C   0  0  0  0  0  0  0  0  0  0  0  0
    0.5285    1.9848    3.3978 C   0  0  0  0  0  0  0  0  0  0  0  0
    0.3878    3.3199    3.1864 O   0  0  0  0  0  0  0  0  0  0  0  0
   -0.7748    3.9445    3.7342 C   0  0  0  0  0  0  0  0  0  0  0  0
    1.7627    2.5144    5.5155 C   0  0  2  0  0  0  0  0  0  0  0  0
    1.5481    3.5293    5.1807 H   0  0  0  0  0  0  0  0  0  0  0  0
    3.2769    2.3206    5.6177 C   0  0  0  0  0  0  0  0  0  0  0  0
    1.1254    2.2845    6.8874 C   0  0  0  0  0  0  0  0  0  0  0  0
    1.6067    3.3626    7.8605 C   0  0  0  0  0  0  0  0  0  0  0  0
    0.9796   -2.1941    4.0534 C   0  0  0  0  0  0  0  0  0  0  0  0
    1.6145   -2.7709    5.1022 C   0  0  0  0  0  0  0  0  0  0  0  0
    1.5337   -4.1496    4.9362 N   0  0  0  0  0  0  0  0  0  0  0  0
    1.9427   -5.2877    5.5969 C   0  0  0  0  0  0  0  0  0  0  0  0
    1.6738   -6.4961    5.1051 C   0  0  0  0  0  0  0  0  0  0  0  0
    0.7853   -6.0963    3.6083 S   0  0  0  0  0  0  0  0  0  0  0  0
    0.8459   -4.3263    3.7639 C   0  0  0  0  0  0  0  0  0  0  0  0
    0.5225   -3.1759    3.2491 N   0  0  0  0  0  0  0  0  0  0  0  0
    2.0270   -7.8493    5.6664 C   0  0  0  0  0  0  0  0  0  0  0  0
    0.9204   -8.3211    6.5741 C   0  0  0  0  0  0  0  0  0  0  0  0
   -0.0550   -7.6295    6.7474 O   0  0  0  0  0  0  0  0  0  0  0  0
   -2.4580    1.3790   -0.8309 H   0  0  0  0  0  0  0  0  0  0  0  0
   -3.9629    1.2784    0.1144 H   0  0  0  0  0  0  0  0  0  0  0  0
   -2.9529    2.7414    0.2022 H   0  0  0  0  0  0  0  0  0  0  0  0
   -2.1517   -0.0361    1.1822 H   0  0  0  0  0  0  0  0  0  0  0  0
   -2.6465    1.3263    2.2152 H   0  0  0  0  0  0  0  0  0  0  0  0
    0.0021   -0.0041    0.0020 H   0  0  0  0  0  0  0  0  0  0  0  0
    1.0099    1.4631    0.0003 H   0  0  0  0  0  0  0  0  0  0  0  0
   -0.5399    1.4469   -0.8751 H   0  0  0  0  0  0  0  0  0  0  0  0
   -0.2612   -0.9793    1.9856 H   0  0  0  0  0  0  0  0  0  0  0  0
    1.8683   -0.1796    5.6170 H   0  0  0  0  0  0  0  0  0  0  0  0
   -0.7638    5.0075    3.4933 H   0  0  0  0  0  0  0  0  0  0  0  0
   -1.6679    3.4852    3.3105 H   0  0  0  0  0  0  0  0  0  0  0  0
   -0.7796    3.8173    4.8168 H   0  0  0  0  0  0  0  0  0  0  0  0
    3.4916    1.3058    5.9525 H   0  0  0  0  0  0  0  0  0  0  0  0
    3.7310    2.4844    4.6404 H   0  0  0  0  0  0  0  0  0  0  0  0
    3.6870    3.0336    6.3329 H   0  0  0  0  0  0  0  0  0  0  0  0
    0.0403    2.3348    6.7969 H   0  0  0  0  0  0  0  0  0  0  0  0
    1.4136    1.3022    7.2618 H   0  0  0  0  0  0  0  0  0  0  0  0
    2.6918    3.3122    7.9509 H   0  0  0  0  0  0  0  0  0  0  0  0
    1.3185    4.3448    7.4860 H   0  0  0  0  0  0  0  0  0  0  0  0
    1.1527    3.1987    8.8378 H   0  0  0  0  0  0  0  0  0  0  0  0
    2.0946   -2.2539    5.9199 H   0  0  0  0  0  0  0  0  0  0  0  0
    2.4878   -5.1988    6.5250 H   0  0  0  0  0  0  0  0  0  0  0  0
    2.1545   -8.5595    4.8494 H   0  0  0  0  0  0  0  0  0  0  0  0
    2.9554   -7.7767    6.2328 H   0  0  0  0  0  0  0  0  0  0  0  0
    1.0184   -9.5097    7.1900 O   0  5  0  0  0  0  0  0  0  0  0  0
  1  2  1  0  0  0  0
  1 30  1  0  0  0  0
  1 31  1  0  0  0  0
  1 32  1  0  0  0  0
  2  3  1  0  0  0  0
  2 33  1  0  0  0  0
  2 34  1  0  0  0  0
  3  4  1  0  0  0  0
  3  5  1  0  0  0  0
  3  6  1  0  0  0  0
  5 35  1  0  0  0  0
  5 36  1  0  0  0  0
  5 37  1  0  0  0  0
  6 11  2  0  0  0  0
  6  7  1  0  0  0  0
  7  8  2  0  0  0  0
  7 38  1  0  0  0  0
  8  9  1  0  0  0  0
  8 19  1  0  0  0  0
  9 10  2  0  0  0  0
  9 39  1  0  0  0  0
 10 11  1  0  0  0  0
 10 14  1  0  0  0  0
 11 12  1  0  0  0  0
 12 13  1  0  0  0  0
 13 40  1  0  0  0  0
 13 41  1  0  0  0  0
 13 42  1  0  0  0  0
 14 15  1  0  0  0  0
 14 16  1  0  0  0  0
 14 17  1  0  0  0  0
 16 43  1  0  0  0  0
 16 44  1  0  0  0  0
 16 45  1  0  0  0  0
 17 18  1  0  0  0  0
 17 46  1  0  0  0  0
 17 47  1  0  0  0  0
 18 48  1  0  0  0  0
 18 49  1  0  0  0  0
 18 50  1  0  0  0  0
 19 26  1  0  0  0  0
 19 20  2  0  0  0  0
 20 21  1  0  0  0  0
 20 51  1  0  0  0  0
 21 25  1  0  0  0  0
 21 22  1  0  0  0  0
 22 23  2  0  0  0  0
 22 52  1  0  0  0  0
 23 24  1  0  0  0  0
 23 27  1  0  0  0  0
 24 25  1  0  0  0  0
 25 26  2  0  0  0  0
 27 28  1  0  0  0  0
 27 53  1  0  0  0  0
 27 54  1  0  0  0  0
 28 29  2  0  0  0  0
 28 55  1  0  0  0  0
M  CHG  1  55  -1
M  END
$$$$
ZINC03868926
  -OEChem-08230709463D

 56 58  0     1  0  0  0  0  0999 V2000
   -2.9403    1.6557    0.1066 C   0  0  0  0  0  0  0  0  0  0  0  0
   -2.1642    1.0497    1.2777 C   0  0  0  0  0  0  0  0  0  0  0  0
   -0.7288    1.5792    1.2668 C   0  0  2  0  0  0  0  0  0  0  0  0
   -0.7436    2.6691    1.2728 H   0  0  0  0  0  0  0  0  0  0  0  0
   -0.0127    1.0858    0.0080 C   0  0  0  0  0  0  0  0  0  0  0  0
    0.0000    1.0800    2.4877 C   0  0  0  0  0  0  0  0  0  0  0  0
    0.1461   -0.2758    2.6967 C   0  0  0  0  0  0  0  0  0  0  0  0
    0.8203   -0.7366    3.8259 C   0  0  0  0  0  0  0  0  0  0  0  0
    1.3450    0.1746    4.7411 C   0  0  0  0  0  0  0  0  0  0  0  0
    1.1957    1.5287    4.5266 C   0  0  0  0  0  0  0  0  0  0  0  0
    0.5285    1.9848    3.3978 C   0  0  0  0  0  0  0  0  0  0  0  0
    0.3878    3.3199    3.1864 O   0  0  0  0  0  0  0  0  0  0  0  0
   -0.7748    3.9445    3.7342 C   0  0  0  0  0  0  0  0  0  0  0  0
    1.7627    2.5144    5.5155 C   0  0  2  0  0  0  0  0  0  0  0  0
    1.5481    3.5293    5.1807 H   0  0  0  0  0  0  0  0  0  0  0  0
    3.2769    2.3206    5.6177 C   0  0  0  0  0  0  0  0  0  0  0  0
    1.1254    2.2845    6.8874 C   0  0  0  0  0  0  0  0  0  0  0  0
    1.6067    3.3626    7.8605 C   0  0  0  0  0  0  0  0  0  0  0  0
    0.9796   -2.1941    4.0534 C   0  0  0  0  0  0  0  0  0  0  0  0
    1.6145   -2.7709    5.1022 C   0  0  0  0  0  0  0  0  0  0  0  0
    1.5337   -4.1496    4.9362 N   0  0  0  0  0  0  0  0  0  0  0  0
    1.9427   -5.2877    5.5969 C   0  0  0  0  0  0  0  0  0  0  0  0
    1.6738   -6.4961    5.1051 C   0  0  0  0  0  0  0  0  0  0  0  0
    0.7853   -6.0963    3.6083 S   0  0  0  0  0  0  0  0  0  0  0  0
    0.8459   -4.3263    3.7639 C   0  0  0  0  0  0  0  0  0  0  0  0
    2.0270   -7.8493    5.6664 C   0  0  0  0  0  0  0  0  0  0  0  0
    0.9204   -8.3211    6.5741 C   0  0  0  0  0  0  0  0  0  0  0  0
   -0.0550   -7.6295    6.7474 O   0  0  0  0  0  0  0  0  0  0  0  0
   -2.4580    1.3790   -0.8309 H   0  0  0  0  0  0  0  0  0  0  0  0
   -3.9629    1.2784    0.1144 H   0  0  0  0  0  0  0  0  0  0  0  0
   -2.9529    2.7414    0.2022 H   0  0  0  0  0  0  0  0  0  0  0  0
   -2.1517   -0.0361    1.1822 H   0  0  0  0  0  0  0  0  0  0  0  0
   -2.6465    1.3263    2.2152 H   0  0  0  0  0  0  0  0  0  0  0  0
    0.0021   -0.0041    0.0020 H   0  0  0  0  0  0  0  0  0  0  0  0
    1.0099    1.4631    0.0003 H   0  0  0  0  0  0  0  0  0  0  0  0
   -0.5399    1.4469   -0.8751 H   0  0  0  0  0  0  0  0  0  0  0  0
   -0.2612   -0.9793    1.9856 H   0  0  0  0  0  0  0  0  0  0  0  0
    1.8683   -0.1796    5.6170 H   0  0  0  0  0  0  0  0  0  0  0  0
   -0.7638    5.0075    3.4933 H   0  0  0  0  0  0  0  0  0  0  0  0
   -1.6679    3.4852    3.3105 H   0  0  0  0  0  0  0  0  0  0  0  0
   -0.7796    3.8173    4.8168 H   0  0  0  0  0  0  0  0  0  0  0  0
    3.4916    1.3058    5.9525 H   0  0  0  0  0  0  0  0  0  0  0  0
    3.7310    2.4844    4.6404 H   0  0  0  0  0  0  0  0  0  0  0  0
    3.6870    3.0336    6.3329 H   0  0  0  0  0  0  0  0  0  0  0  0
    0.0403    2.3348    6.7969 H   0  0  0  0  0  0  0  0  0  0  0  0
    1.4136    1.3022    7.2618 H   0  0  0  0  0  0  0  0  0  0  0  0
    2.6918    3.3122    7.9509 H   0  0  0  0  0  0  0  0  0  0  0  0
    1.3185    4.3448    7.4860 H   0  0  0  0  0  0  0  0  0  0  0  0
    1.1527    3.1987    8.8378 H   0  0  0  0  0  0  0  0  0  0  0  0
    2.0946   -2.2539    5.9199 H   0  0  0  0  0  0  0  0  0  0  0  0
    2.4878   -5.1988    6.5250 H   0  0  0  0  0  0  0  0  0  0  0  0
    2.1545   -8.5595    4.8494 H   0  0  0  0  0  0  0  0  0  0  0  0
    2.9554   -7.7767    6.2328 H   0  0  0  0  0  0  0  0  0  0  0  0
    1.0184   -9.5097    7.1900 O   0  5  0  0  0  0  0  0  0  0  0  0
    0.5244   -3.1764    3.2523 N   0  3  0  0  0  0  0  0  0  0  0  0
    0.0060   -3.0383    2.3769 H   0  0  0  0  0  0  0  0  0  0  0  0
  1  2  1  0  0  0  0
  1 29  1  0  0  0  0
  1 30  1  0  0  0  0
  1 31  1  0  0  0  0
  2  3  1  0  0  0  0
  2 32  1  0  0  0  0
  2 33  1  0  0  0  0
  3  4  1  0  0  0  0
  3  5  1  0  0  0  0
  3  6  1  0  0  0  0
  5 34  1  0  0  0  0
  5 35  1  0  0  0  0
  5 36  1  0  0  0  0
  6 11  2  0  0  0  0
  6  7  1  0  0  0  0
  7  8  2  0  0  0  0
  7 37  1  0  0  0  0
  8  9  1  0  0  0  0
  8 19  1  0  0  0  0
  9 10  2  0  0  0  0
  9 38  1  0  0  0  0
 10 11  1  0  0  0  0
 10 14  1  0  0  0  0
 11 12  1  0  0  0  0
 12 13  1  0  0  0  0
 13 39  1  0  0  0  0
 13 40  1  0  0  0  0
 13 41  1  0  0  0  0
 14 15  1  0  0  0  0
 14 16  1  0  0  0  0
 14 17  1  0  0  0  0
 16 42  1  0  0  0  0
 16 43  1  0  0  0  0
 16 44  1  0  0  0  0
 17 18  1  0  0  0  0
 17 45  1  0  0  0  0
 17 46  1  0  0  0  0
 18 47  1  0  0  0  0
 18 48  1  0  0  0  0
 18 49  1  0  0  0  0
 19 20  2  0  0  0  0
 19 55  1  0  0  0  0
 20 21  1  0  0  0  0
 20 50  1  0  0  0  0
 21 25  1  0  0  0  0
 21 22  1  0  0  0  0
 22 23  2  0  0  0  0
 22 51  1  0  0  0  0
 23 24  1  0  0  0  0
 23 26  1  0  0  0  0
 24 25  1  0  0  0  0
 25 55  2  0  0  0  0
 26 27  1  0  0  0  0
 26 52  1  0  0  0  0
 26 53  1  0  0  0  0
 27 28  2  0  0  0  0
 27 54  1  0  0  0  0
 55 56  1  0  0  0  0
M  CHG  2  54  -1  55   1
M  END
$$$$
ZINC03868927
  -OEChem-08230709463D

 55 57  0     0  0  0  0  0  0999 V2000
    0.4657   -8.9088   -3.1791 C   0  0  0  0  0  0  0  0  0  0  0  0
    0.4157   -9.5047   -1.7708 C   0  0  0  0  0  0  0  0  0  0  0  0
    1.8393   -9.6615   -1.2325 C   0  0  0  0  0  0  0  0  0  0  0  0
   -0.2646  -10.8742   -1.8203 C   0  0  0  0  0  0  0  0  0  0  0  0
   -0.3657   -8.5881   -0.8650 C   0  0  0  0  0  0  0  0  0  0  0  0
   -0.9084   -7.4232   -1.3658 C   0  0  0  0  0  0  0  0  0  0  0  0
   -1.6306   -6.5758   -0.5274 C   0  0  0  0  0  0  0  0  0  0  0  0
   -1.7974   -6.9060    0.8164 C   0  0  0  0  0  0  0  0  0  0  0  0
   -1.2564   -8.0748    1.3101 C   0  0  0  0  0  0  0  0  0  0  0  0
   -0.5381   -8.9169    0.4725 C   0  0  0  0  0  0  0  0  0  0  0  0
   -0.0021  -10.0655    0.9630 O   0  0  0  0  0  0  0  0  0  0  0  0
   -0.8333  -11.2277    0.9474 C   0  0  0  0  0  0  0  0  0  0  0  0
   -1.4408   -8.4352    2.7617 C   0  0  0  0  0  0  0  0  0  0  0  0
   -2.1030   -7.2682    3.4969 C   0  0  0  0  0  0  0  0  0  0  0  0
   -2.3290   -9.6762    2.8702 C   0  0  0  0  0  0  0  0  0  0  0  0
   -0.0775   -8.7272    3.3919 C   0  0  0  0  0  0  0  0  0  0  0  0
   -2.2153   -5.3216   -1.0628 C   0  0  0  0  0  0  0  0  0  0  0  0
   -2.9352   -4.4153   -0.3584 C   0  0  0  0  0  0  0  0  0  0  0  0
   -3.2933   -3.3928   -1.2308 N   0  0  0  0  0  0  0  0  0  0  0  0
   -3.9903   -2.2048   -1.1874 C   0  0  0  0  0  0  0  0  0  0  0  0
   -4.1345   -1.4579   -2.2809 C   0  0  0  0  0  0  0  0  0  0  0  0
   -3.2457   -2.4132   -3.5005 S   0  0  0  0  0  0  0  0  0  0  0  0
   -2.7548   -3.7522   -2.4389 C   0  0  0  0  0  0  0  0  0  0  0  0
   -2.1232   -4.8851   -2.3359 N   0  0  0  0  0  0  0  0  0  0  0  0
   -4.8551   -0.1446   -2.4449 C   0  0  0  0  0  0  0  0  0  0  0  0
   -3.9001    0.9895   -2.1747 C   0  0  0  0  0  0  0  0  0  0  0  0
   -2.7522    0.7553   -1.8792 O   0  0  0  0  0  0  0  0  0  0  0  0
    0.9504   -7.9332   -3.1438 H   0  0  0  0  0  0  0  0  0  0  0  0
    1.0309   -9.5718   -3.8343 H   0  0  0  0  0  0  0  0  0  0  0  0
   -0.5485   -8.7971   -3.5626 H   0  0  0  0  0  0  0  0  0  0  0  0
    1.8093  -10.1685   -0.2681 H   0  0  0  0  0  0  0  0  0  0  0  0
    2.4303  -10.2502   -1.9342 H   0  0  0  0  0  0  0  0  0  0  0  0
    2.2925   -8.6776   -1.1118 H   0  0  0  0  0  0  0  0  0  0  0  0
   -1.3439  -10.7470   -1.7372 H   0  0  0  0  0  0  0  0  0  0  0  0
   -0.0281  -11.3634   -2.7652 H   0  0  0  0  0  0  0  0  0  0  0  0
    0.0937  -11.4880   -0.9938 H   0  0  0  0  0  0  0  0  0  0  0  0
   -0.7742   -7.1681   -2.4067 H   0  0  0  0  0  0  0  0  0  0  0  0
   -2.3527   -6.2492    1.4695 H   0  0  0  0  0  0  0  0  0  0  0  0
   -1.0375  -11.5145   -0.0842 H   0  0  0  0  0  0  0  0  0  0  0  0
   -0.3244  -12.0453    1.4579 H   0  0  0  0  0  0  0  0  0  0  0  0
   -1.7721  -11.0098    1.4565 H   0  0  0  0  0  0  0  0  0  0  0  0
   -3.0742   -7.0602    3.0479 H   0  0  0  0  0  0  0  0  0  0  0  0
   -2.2363   -7.5289    4.5468 H   0  0  0  0  0  0  0  0  0  0  0  0
   -1.4702   -6.3841    3.4196 H   0  0  0  0  0  0  0  0  0  0  0  0
   -1.7181  -10.5715    2.7552 H   0  0  0  0  0  0  0  0  0  0  0  0
   -2.8151   -9.6910    3.8457 H   0  0  0  0  0  0  0  0  0  0  0  0
   -3.0867   -9.6503    2.0871 H   0  0  0  0  0  0  0  0  0  0  0  0
    0.5309   -7.8229    3.3769 H   0  0  0  0  0  0  0  0  0  0  0  0
   -0.2161   -9.0548    4.4222 H   0  0  0  0  0  0  0  0  0  0  0  0
    0.4241   -9.5119    2.8254 H   0  0  0  0  0  0  0  0  0  0  0  0
   -3.1857   -4.4758    0.6904 H   0  0  0  0  0  0  0  0  0  0  0  0
   -4.4281   -1.8770   -0.2562 H   0  0  0  0  0  0  0  0  0  0  0  0
   -5.6859   -0.0955   -1.7410 H   0  0  0  0  0  0  0  0  0  0  0  0
   -5.2362   -0.0639   -3.4630 H   0  0  0  0  0  0  0  0  0  0  0  0
   -4.3248    2.2598   -2.2622 O   0  5  0  0  0  0  0  0  0  0  0  0
  1  2  1  0  0  0  0
  1 28  1  0  0  0  0
  1 29  1  0  0  0  0
  1 30  1  0  0  0  0
  2  3  1  0  0  0  0
  2  4  1  0  0  0  0
  2  5  1  0  0  0  0
  3 31  1  0  0  0  0
  3 32  1  0  0  0  0
  3 33  1  0  0  0  0
  4 34  1  0  0  0  0
  4 35  1  0  0  0  0
  4 36  1  0  0  0  0
  5 10  2  0  0  0  0
  5  6  1  0  0  0  0
  6  7  2  0  0  0  0
  6 37  1  0  0  0  0
  7  8  1  0  0  0  0
  7 17  1  0  0  0  0
  8  9  2  0  0  0  0
  8 38  1  0  0  0  0
  9 10  1  0  0  0  0
  9 13  1  0  0  0  0
 10 11  1  0  0  0  0
 11 12  1  0  0  0  0
 12 39  1  0  0  0  0
 12 40  1  0  0  0  0
 12 41  1  0  0  0  0
 13 14  1  0  0  0  0
 13 15  1  0  0  0  0
 13 16  1  0  0  0  0
 14 42  1  0  0  0  0
 14 43  1  0  0  0  0
 14 44  1  0  0  0  0
 15 45  1  0  0  0  0
 15 46  1  0  0  0  0
 15 47  1  0  0  0  0
 16 48  1  0  0  0  0
 16 49  1  0  0  0  0
 16 50  1  0  0  0  0
 17 24  1  0  0  0  0
 17 18  2  0  0  0  0
 18 19  1  0  0  0  0
 18 51  1  0  0  0  0
 19 23  1  0  0  0  0
 19 20  1  0  0  0  0
 20 21  2  0  0  0  0
 20 52  1  0  0  0  0
 21 22  1  0  0  0  0
 21 25  1  0  0  0  0
 22 23  1  0  0  0  0
 23 24  2  0  0  0  0
 25 26  1  0  0  0  0
 25 53  1  0  0  0  0
 25 54  1  0  0  0  0
 26 27  2  0  0  0  0
 26 55  1  0  0  0  0
M  CHG  1  55  -1
M  END
$$$$
ZINC03868927
  -OEChem-08230709463D

 56 58  0     0  0  0  0  0  0999 V2000
    0.4657   -8.9088   -3.1791 C   0  0  0  0  0  0  0  0  0  0  0  0
    0.4157   -9.5047   -1.7708 C   0  0  0  0  0  0  0  0  0  0  0  0
    1.8393   -9.6615   -1.2325 C   0  0  0  0  0  0  0  0  0  0  0  0
   -0.2646  -10.8742   -1.8203 C   0  0  0  0  0  0  0  0  0  0  0  0
   -0.3657   -8.5881   -0.8650 C   0  0  0  0  0  0  0  0  0  0  0  0
   -0.9084   -7.4232   -1.3658 C   0  0  0  0  0  0  0  0  0  0  0  0
   -1.6306   -6.5758   -0.5274 C   0  0  0  0  0  0  0  0  0  0  0  0
   -1.7974   -6.9060    0.8164 C   0  0  0  0  0  0  0  0  0  0  0  0
   -1.2564   -8.0748    1.3101 C   0  0  0  0  0  0  0  0  0  0  0  0
   -0.5381   -8.9169    0.4725 C   0  0  0  0  0  0  0  0  0  0  0  0
   -0.0021  -10.0655    0.9630 O   0  0  0  0  0  0  0  0  0  0  0  0
   -0.8333  -11.2277    0.9474 C   0  0  0  0  0  0  0  0  0  0  0  0
   -1.4408   -8.4352    2.7617 C   0  0  0  0  0  0  0  0  0  0  0  0
   -2.1030   -7.2682    3.4969 C   0  0  0  0  0  0  0  0  0  0  0  0
   -2.3290   -9.6762    2.8702 C   0  0  0  0  0  0  0  0  0  0  0  0
   -0.0775   -8.7272    3.3919 C   0  0  0  0  0  0  0  0  0  0  0  0
   -2.2153   -5.3216   -1.0628 C   0  0  0  0  0  0  0  0  0  0  0  0
   -2.9352   -4.4153   -0.3584 C   0  0  0  0  0  0  0  0  0  0  0  0
   -3.2933   -3.3928   -1.2308 N   0  0  0  0  0  0  0  0  0  0  0  0
   -3.9903   -2.2048   -1.1874 C   0  0  0  0  0  0  0  0  0  0  0  0
   -4.1345   -1.4579   -2.2809 C   0  0  0  0  0  0  0  0  0  0  0  0
   -3.2457   -2.4132   -3.5005 S   0  0  0  0  0  0  0  0  0  0  0  0
   -2.7548   -3.7522   -2.4389 C   0  0  0  0  0  0  0  0  0  0  0  0
   -4.8551   -0.1446   -2.4449 C   0  0  0  0  0  0  0  0  0  0  0  0
   -3.9001    0.9895   -2.1747 C   0  0  0  0  0  0  0  0  0  0  0  0
   -2.7522    0.7553   -1.8792 O   0  0  0  0  0  0  0  0  0  0  0  0
    0.9504   -7.9332   -3.1438 H   0  0  0  0  0  0  0  0  0  0  0  0
    1.0309   -9.5718   -3.8343 H   0  0  0  0  0  0  0  0  0  0  0  0
   -0.5485   -8.7971   -3.5626 H   0  0  0  0  0  0  0  0  0  0  0  0
    1.8093  -10.1685   -0.2681 H   0  0  0  0  0  0  0  0  0  0  0  0
    2.4303  -10.2502   -1.9342 H   0  0  0  0  0  0  0  0  0  0  0  0
    2.2925   -8.6776   -1.1118 H   0  0  0  0  0  0  0  0  0  0  0  0
   -1.3439  -10.7470   -1.7372 H   0  0  0  0  0  0  0  0  0  0  0  0
   -0.0281  -11.3634   -2.7652 H   0  0  0  0  0  0  0  0  0  0  0  0
    0.0937  -11.4880   -0.9938 H   0  0  0  0  0  0  0  0  0  0  0  0
   -0.7742   -7.1681   -2.4067 H   0  0  0  0  0  0  0  0  0  0  0  0
   -2.3527   -6.2492    1.4695 H   0  0  0  0  0  0  0  0  0  0  0  0
   -1.0375  -11.5145   -0.0842 H   0  0  0  0  0  0  0  0  0  0  0  0
   -0.3244  -12.0453    1.4579 H   0  0  0  0  0  0  0  0  0  0  0  0
   -1.7721  -11.0098    1.4565 H   0  0  0  0  0  0  0  0  0  0  0  0
   -3.0742   -7.0602    3.0479 H   0  0  0  0  0  0  0  0  0  0  0  0
   -2.2363   -7.5289    4.5468 H   0  0  0  0  0  0  0  0  0  0  0  0
   -1.4702   -6.3841    3.4196 H   0  0  0  0  0  0  0  0  0  0  0  0
   -1.7181  -10.5715    2.7552 H   0  0  0  0  0  0  0  0  0  0  0  0
   -2.8151   -9.6910    3.8457 H   0  0  0  0  0  0  0  0  0  0  0  0
   -3.0867   -9.6503    2.0871 H   0  0  0  0  0  0  0  0  0  0  0  0
    0.5309   -7.8229    3.3769 H   0  0  0  0  0  0  0  0  0  0  0  0
   -0.2161   -9.0548    4.4222 H   0  0  0  0  0  0  0  0  0  0  0  0
    0.4241   -9.5119    2.8254 H   0  0  0  0  0  0  0  0  0  0  0  0
   -3.1857   -4.4758    0.6904 H   0  0  0  0  0  0  0  0  0  0  0  0
   -4.4281   -1.8770   -0.2562 H   0  0  0  0  0  0  0  0  0  0  0  0
   -5.6859   -0.0955   -1.7410 H   0  0  0  0  0  0  0  0  0  0  0  0
   -5.2362   -0.0639   -3.4630 H   0  0  0  0  0  0  0  0  0  0  0  0
   -4.3248    2.2598   -2.2622 O   0  5  0  0  0  0  0  0  0  0  0  0
   -2.1250   -4.8833   -2.3330 N   0  3  0  0  0  0  0  0  0  0  0  0
   -1.6363   -5.3662   -3.0961 H   0  0  0  0  0  0  0  0  0  0  0  0
  1  2  1  0  0  0  0
  1 27  1  0  0  0  0
  1 28  1  0  0  0  0
  1 29  1  0  0  0  0
  2  3  1  0  0  0  0
  2  4  1  0  0  0  0
  2  5  1  0  0  0  0
  3 30  1  0  0  0  0
  3 31  1  0  0  0  0
  3 32  1  0  0  0  0
  4 33  1  0  0  0  0
  4 34  1  0  0  0  0
  4 35  1  0  0  0  0
  5 10  2  0  0  0  0
  5  6  1  0  0  0  0
  6  7  2  0  0  0  0
  6 36  1  0  0  0  0
  7  8  1  0  0  0  0
  7 17  1  0  0  0  0
  8  9  2  0  0  0  0
  8 37  1  0  0  0  0
  9 10  1  0  0  0  0
  9 13  1  0  0  0  0
 10 11  1  0  0  0  0
 11 12  1  0  0  0  0
 12 38  1  0  0  0  0
 12 39  1  0  0  0  0
 12 40  1  0  0  0  0
 13 14  1  0  0  0  0
 13 15  1  0  0  0  0
 13 16  1  0  0  0  0
 14 41  1  0  0  0  0
 14 42  1  0  0  0  0
 14 43  1  0  0  0  0
 15 44  1  0  0  0  0
 15 45  1  0  0  0  0
 15 46  1  0  0  0  0
 16 47  1  0  0  0  0
 16 48  1  0  0  0  0
 16 49  1  0  0  0  0
 17 18  2  0  0  0  0
 17 55  1  0  0  0  0
 18 19  1  0  0  0  0
 18 50  1  0  0  0  0
 19 23  1  0  0  0  0
 19 20  1  0  0  0  0
 20 21  2  0  0  0  0
 20 51  1  0  0  0  0
 21 22  1  0  0  0  0
 21 24  1  0  0  0  0
 22 23  1  0  0  0  0
 23 55  2  0  0  0  0
 24 25  1  0  0  0  0
 24 52  1  0  0  0  0
 24 53  1  0  0  0  0
 25 26  2  0  0  0  0
 25 54  1  0  0  0  0
 55 56  1  0  0  0  0
M  CHG  2  54  -1  55   1
M  END
$$$$
ZINC03868928
  -OEChem-08230709463D

 58 60  0     0  0  0  0  0  0999 V2000
   -0.1203  -12.4317    1.6265 C   0  0  0  0  0  0  0  0  0  0  0  0
   -0.8374  -11.2730    0.9308 C   0  0  0  0  0  0  0  0  0  0  0  0
   -0.0162  -10.1047    0.9826 O   0  0  0  0  0  0  0  0  0  0  0  0
   -0.5383   -8.9602    0.4681 C   0  0  0  0  0  0  0  0  0  0  0  0
   -0.3149   -8.6341   -0.8625 C   0  0  0  0  0  0  0  0  0  0  0  0
   -0.8434   -7.4733   -1.3876 C   0  0  0  0  0  0  0  0  0  0  0  0
   -1.6024   -6.6274   -0.5807 C   0  0  0  0  0  0  0  0  0  0  0  0
   -1.8205   -6.9550    0.7564 C   0  0  0  0  0  0  0  0  0  0  0  0
   -1.2933   -8.1197    1.2744 C   0  0  0  0  0  0  0  0  0  0  0  0
   -1.5330   -8.4772    2.7186 C   0  0  0  0  0  0  0  0  0  0  0  0
   -2.2328   -7.3131    3.4229 C   0  0  0  0  0  0  0  0  0  0  0  0
   -2.4157   -9.7246    2.7954 C   0  0  0  0  0  0  0  0  0  0  0  0
   -0.1939   -8.7571    3.4037 C   0  0  0  0  0  0  0  0  0  0  0  0
   -2.1719   -5.3778   -1.1423 C   0  0  0  0  0  0  0  0  0  0  0  0
   -2.9237   -4.4734   -0.4694 C   0  0  0  0  0  0  0  0  0  0  0  0
   -3.2522   -3.4550   -1.3581 N   0  0  0  0  0  0  0  0  0  0  0  0
   -3.9563   -2.2705   -1.3456 C   0  0  0  0  0  0  0  0  0  0  0  0
   -4.0611   -1.5272   -2.4460 C   0  0  0  0  0  0  0  0  0  0  0  0
   -3.1199   -2.4810   -3.6268 S   0  0  0  0  0  0  0  0  0  0  0  0
   -2.6646   -3.8147   -2.5430 C   0  0  0  0  0  0  0  0  0  0  0  0
   -2.0316   -4.9439   -2.4119 N   0  0  0  0  0  0  0  0  0  0  0  0
   -4.7812   -0.2180   -2.6420 C   0  0  0  0  0  0  0  0  0  0  0  0
   -3.8434    0.9217   -2.3373 C   0  0  0  0  0  0  0  0  0  0  0  0
   -2.7069    0.6941   -1.9961 O   0  0  0  0  0  0  0  0  0  0  0  0
    0.5062   -9.5489   -1.7342 C   0  0  0  0  0  0  0  0  0  0  0  0
    0.6306   -8.9438   -3.1339 C   0  0  0  0  0  0  0  0  0  0  0  0
    1.8999   -9.7177   -1.1258 C   0  0  0  0  0  0  0  0  0  0  0  0
   -0.1781  -10.9141   -1.8277 C   0  0  0  0  0  0  0  0  0  0  0  0
    0.8252  -12.6295    1.1215 H   0  0  0  0  0  0  0  0  0  0  0  0
    0.0715  -12.1683    2.6666 H   0  0  0  0  0  0  0  0  0  0  0  0
   -0.7467  -13.3229    1.5870 H   0  0  0  0  0  0  0  0  0  0  0  0
   -1.7829  -11.0752    1.4358 H   0  0  0  0  0  0  0  0  0  0  0  0
   -1.0292  -11.5364   -0.1093 H   0  0  0  0  0  0  0  0  0  0  0  0
   -0.6696   -7.2202   -2.4231 H   0  0  0  0  0  0  0  0  0  0  0  0
   -2.4044   -6.2994    1.3852 H   0  0  0  0  0  0  0  0  0  0  0  0
   -3.1868   -7.1138    2.9348 H   0  0  0  0  0  0  0  0  0  0  0  0
   -2.4061   -7.5718    4.4675 H   0  0  0  0  0  0  0  0  0  0  0  0
   -1.6040   -6.4245    3.3681 H   0  0  0  0  0  0  0  0  0  0  0  0
   -1.7918  -10.6159    2.7283 H   0  0  0  0  0  0  0  0  0  0  0  0
   -2.9559   -9.7297    3.7422 H   0  0  0  0  0  0  0  0  0  0  0  0
   -3.1282   -9.7169    1.9706 H   0  0  0  0  0  0  0  0  0  0  0  0
    0.4074   -7.8480    3.4110 H   0  0  0  0  0  0  0  0  0  0  0  0
   -0.3713   -9.0837    4.4284 H   0  0  0  0  0  0  0  0  0  0  0  0
    0.3361   -9.5389    2.8598 H   0  0  0  0  0  0  0  0  0  0  0  0
   -3.2151   -4.5325    0.5689 H   0  0  0  0  0  0  0  0  0  0  0  0
   -4.4323   -1.9426   -0.4332 H   0  0  0  0  0  0  0  0  0  0  0  0
   -5.6394   -0.1714   -1.9716 H   0  0  0  0  0  0  0  0  0  0  0  0
   -5.1221   -0.1418   -3.6745 H   0  0  0  0  0  0  0  0  0  0  0  0
    1.1181   -7.9712   -3.0672 H   0  0  0  0  0  0  0  0  0  0  0  0
    1.2245   -9.6055   -3.7643 H   0  0  0  0  0  0  0  0  0  0  0  0
   -0.3623   -8.8235   -3.5673 H   0  0  0  0  0  0  0  0  0  0  0  0
    1.8185  -10.2313   -0.1679 H   0  0  0  0  0  0  0  0  0  0  0  0
    2.5225  -10.3047   -1.8011 H   0  0  0  0  0  0  0  0  0  0  0  0
    2.3517   -8.7372   -0.9751 H   0  0  0  0  0  0  0  0  0  0  0  0
   -1.2596  -10.7813   -1.7968 H   0  0  0  0  0  0  0  0  0  0  0  0
    0.1020  -11.3976   -2.7636 H   0  0  0  0  0  0  0  0  0  0  0  0
    0.1357  -11.5361   -0.9894 H   0  0  0  0  0  0  0  0  0  0  0  0
   -4.2707    2.1896   -2.4451 O   0  5  0  0  0  0  0  0  0  0  0  0
  1  2  1  0  0  0  0
  1 29  1  0  0  0  0
  1 30  1  0  0  0  0
  1 31  1  0  0  0  0
  2  3  1  0  0  0  0
  2 32  1  0  0  0  0
  2 33  1  0  0  0  0
  3  4  1  0  0  0  0
  4  9  2  0  0  0  0
  4  5  1  0  0  0  0
  5  6  2  0  0  0  0
  5 25  1  0  0  0  0
  6  7  1  0  0  0  0
  6 34  1  0  0  0  0
  7  8  2  0  0  0  0
  7 14  1  0  0  0  0
  8  9  1  0  0  0  0
  8 35  1  0  0  0  0
  9 10  1  0  0  0  0
 10 11  1  0  0  0  0
 10 12  1  0  0  0  0
 10 13  1  0  0  0  0
 11 36  1  0  0  0  0
 11 37  1  0  0  0  0
 11 38  1  0  0  0  0
 12 39  1  0  0  0  0
 12 40  1  0  0  0  0
 12 41  1  0  0  0  0
 13 42  1  0  0  0  0
 13 43  1  0  0  0  0
 13 44  1  0  0  0  0
 14 21  1  0  0  0  0
 14 15  2  0  0  0  0
 15 16  1  0  0  0  0
 15 45  1  0  0  0  0
 16 20  1  0  0  0  0
 16 17  1  0  0  0  0
 17 18  2  0  0  0  0
 17 46  1  0  0  0  0
 18 19  1  0  0  0  0
 18 22  1  0  0  0  0
 19 20  1  0  0  0  0
 20 21  2  0  0  0  0
 22 23  1  0  0  0  0
 22 47  1  0  0  0  0
 22 48  1  0  0  0  0
 23 24  2  0  0  0  0
 23 58  1  0  0  0  0
 25 26  1  0  0  0  0
 25 27  1  0  0  0  0
 25 28  1  0  0  0  0
 26 49  1  0  0  0  0
 26 50  1  0  0  0  0
 26 51  1  0  0  0  0
 27 52  1  0  0  0  0
 27 53  1  0  0  0  0
 27 54  1  0  0  0  0
 28 55  1  0  0  0  0
 28 56  1  0  0  0  0
 28 57  1  0  0  0  0
M  CHG  1  58  -1
M  END
$$$$
ZINC03868928
  -OEChem-08230709463D

 59 61  0     0  0  0  0  0  0999 V2000
   -0.1203  -12.4317    1.6265 C   0  0  0  0  0  0  0  0  0  0  0  0
   -0.8374  -11.2730    0.9308 C   0  0  0  0  0  0  0  0  0  0  0  0
   -0.0162  -10.1047    0.9826 O   0  0  0  0  0  0  0  0  0  0  0  0
   -0.5383   -8.9602    0.4681 C   0  0  0  0  0  0  0  0  0  0  0  0
   -0.3149   -8.6341   -0.8625 C   0  0  0  0  0  0  0  0  0  0  0  0
   -0.8434   -7.4733   -1.3876 C   0  0  0  0  0  0  0  0  0  0  0  0
   -1.6024   -6.6274   -0.5807 C   0  0  0  0  0  0  0  0  0  0  0  0
   -1.8205   -6.9550    0.7564 C   0  0  0  0  0  0  0  0  0  0  0  0
   -1.2933   -8.1197    1.2744 C   0  0  0  0  0  0  0  0  0  0  0  0
   -1.5330   -8.4772    2.7186 C   0  0  0  0  0  0  0  0  0  0  0  0
   -2.2328   -7.3131    3.4229 C   0  0  0  0  0  0  0  0  0  0  0  0
   -2.4157   -9.7246    2.7954 C   0  0  0  0  0  0  0  0  0  0  0  0
   -0.1939   -8.7571    3.4037 C   0  0  0  0  0  0  0  0  0  0  0  0
   -2.1719   -5.3778   -1.1423 C   0  0  0  0  0  0  0  0  0  0  0  0
   -2.9237   -4.4734   -0.4694 C   0  0  0  0  0  0  0  0  0  0  0  0
   -3.2522   -3.4550   -1.3581 N   0  0  0  0  0  0  0  0  0  0  0  0
   -3.9563   -2.2705   -1.3456 C   0  0  0  0  0  0  0  0  0  0  0  0
   -4.0611   -1.5272   -2.4460 C   0  0  0  0  0  0  0  0  0  0  0  0
   -3.1199   -2.4810   -3.6268 S   0  0  0  0  0  0  0  0  0  0  0  0
   -2.6646   -3.8147   -2.5430 C   0  0  0  0  0  0  0  0  0  0  0  0
   -4.7812   -0.2180   -2.6420 C   0  0  0  0  0  0  0  0  0  0  0  0
   -3.8434    0.9217   -2.3373 C   0  0  0  0  0  0  0  0  0  0  0  0
   -2.7069    0.6941   -1.9961 O   0  0  0  0  0  0  0  0  0  0  0  0
    0.5062   -9.5489   -1.7342 C   0  0  0  0  0  0  0  0  0  0  0  0
    0.6306   -8.9438   -3.1339 C   0  0  0  0  0  0  0  0  0  0  0  0
    1.8999   -9.7177   -1.1258 C   0  0  0  0  0  0  0  0  0  0  0  0
   -0.1781  -10.9141   -1.8277 C   0  0  0  0  0  0  0  0  0  0  0  0
    0.8252  -12.6295    1.1215 H   0  0  0  0  0  0  0  0  0  0  0  0
    0.0715  -12.1683    2.6666 H   0  0  0  0  0  0  0  0  0  0  0  0
   -0.7467  -13.3229    1.5870 H   0  0  0  0  0  0  0  0  0  0  0  0
   -1.7829  -11.0752    1.4358 H   0  0  0  0  0  0  0  0  0  0  0  0
   -1.0292  -11.5364   -0.1093 H   0  0  0  0  0  0  0  0  0  0  0  0
   -0.6696   -7.2202   -2.4231 H   0  0  0  0  0  0  0  0  0  0  0  0
   -2.4044   -6.2994    1.3852 H   0  0  0  0  0  0  0  0  0  0  0  0
   -3.1868   -7.1138    2.9348 H   0  0  0  0  0  0  0  0  0  0  0  0
   -2.4061   -7.5718    4.4675 H   0  0  0  0  0  0  0  0  0  0  0  0
   -1.6040   -6.4245    3.3681 H   0  0  0  0  0  0  0  0  0  0  0  0
   -1.7918  -10.6159    2.7283 H   0  0  0  0  0  0  0  0  0  0  0  0
   -2.9559   -9.7297    3.7422 H   0  0  0  0  0  0  0  0  0  0  0  0
   -3.1282   -9.7169    1.9706 H   0  0  0  0  0  0  0  0  0  0  0  0
    0.4074   -7.8480    3.4110 H   0  0  0  0  0  0  0  0  0  0  0  0
   -0.3713   -9.0837    4.4284 H   0  0  0  0  0  0  0  0  0  0  0  0
    0.3361   -9.5389    2.8598 H   0  0  0  0  0  0  0  0  0  0  0  0
   -3.2151   -4.5325    0.5689 H   0  0  0  0  0  0  0  0  0  0  0  0
   -4.4323   -1.9426   -0.4332 H   0  0  0  0  0  0  0  0  0  0  0  0
   -5.6394   -0.1714   -1.9716 H   0  0  0  0  0  0  0  0  0  0  0  0
   -5.1221   -0.1418   -3.6745 H   0  0  0  0  0  0  0  0  0  0  0  0
    1.1181   -7.9712   -3.0672 H   0  0  0  0  0  0  0  0  0  0  0  0
    1.2245   -9.6055   -3.7643 H   0  0  0  0  0  0  0  0  0  0  0  0
   -0.3623   -8.8235   -3.5673 H   0  0  0  0  0  0  0  0  0  0  0  0
    1.8185  -10.2313   -0.1679 H   0  0  0  0  0  0  0  0  0  0  0  0
    2.5225  -10.3047   -1.8011 H   0  0  0  0  0  0  0  0  0  0  0  0
    2.3517   -8.7372   -0.9751 H   0  0  0  0  0  0  0  0  0  0  0  0
   -1.2596  -10.7813   -1.7968 H   0  0  0  0  0  0  0  0  0  0  0  0
    0.1020  -11.3976   -2.7636 H   0  0  0  0  0  0  0  0  0  0  0  0
    0.1357  -11.5361   -0.9894 H   0  0  0  0  0  0  0  0  0  0  0  0
   -4.2707    2.1896   -2.4451 O   0  5  0  0  0  0  0  0  0  0  0  0
   -2.0335   -4.9421   -2.4091 N   0  3  0  0  0  0  0  0  0  0  0  0
   -1.5123   -5.4243   -3.1508 H   0  0  0  0  0  0  0  0  0  0  0  0
  1  2  1  0  0  0  0
  1 28  1  0  0  0  0
  1 29  1  0  0  0  0
  1 30  1  0  0  0  0
  2  3  1  0  0  0  0
  2 31  1  0  0  0  0
  2 32  1  0  0  0  0
  3  4  1  0  0  0  0
  4  9  2  0  0  0  0
  4  5  1  0  0  0  0
  5  6  2  0  0  0  0
  5 24  1  0  0  0  0
  6  7  1  0  0  0  0
  6 33  1  0  0  0  0
  7  8  2  0  0  0  0
  7 14  1  0  0  0  0
  8  9  1  0  0  0  0
  8 34  1  0  0  0  0
  9 10  1  0  0  0  0
 10 11  1  0  0  0  0
 10 12  1  0  0  0  0
 10 13  1  0  0  0  0
 11 35  1  0  0  0  0
 11 36  1  0  0  0  0
 11 37  1  0  0  0  0
 12 38  1  0  0  0  0
 12 39  1  0  0  0  0
 12 40  1  0  0  0  0
 13 41  1  0  0  0  0
 13 42  1  0  0  0  0
 13 43  1  0  0  0  0
 14 15  2  0  0  0  0
 14 58  1  0  0  0  0
 15 16  1  0  0  0  0
 15 44  1  0  0  0  0
 16 20  1  0  0  0  0
 16 17  1  0  0  0  0
 17 18  2  0  0  0  0
 17 45  1  0  0  0  0
 18 19  1  0  0  0  0
 18 21  1  0  0  0  0
 19 20  1  0  0  0  0
 20 58  2  0  0  0  0
 21 22  1  0  0  0  0
 21 46  1  0  0  0  0
 21 47  1  0  0  0  0
 22 23  2  0  0  0  0
 22 57  1  0  0  0  0
 24 25  1  0  0  0  0
 24 26  1  0  0  0  0
 24 27  1  0  0  0  0
 25 48  1  0  0  0  0
 25 49  1  0  0  0  0
 25 50  1  0  0  0  0
 26 51  1  0  0  0  0
 26 52  1  0  0  0  0
 26 53  1  0  0  0  0
 27 54  1  0  0  0  0
 27 55  1  0  0  0  0
 27 56  1  0  0  0  0
 58 59  1  0  0  0  0
M  CHG  2  57  -1  58   1
M  END
$$$$
ZINC03868931
  -OEChem-08230709463D

 53 55  0     0  0  0  0  0  0999 V2000
    0.5157   -9.5517    6.4905 C   0  0  0  0  0  0  0  0  0  0  0  0
    0.3883   -8.9729    5.0799 C   0  0  0  0  0  0  0  0  0  0  0  0
    0.5889  -10.0114    4.1190 O   0  0  0  0  0  0  0  0  0  0  0  0
    0.5085   -9.6626    2.8072 C   0  0  0  0  0  0  0  0  0  0  0  0
    0.2484   -8.3482    2.4560 C   0  0  0  0  0  0  0  0  0  0  0  0
    0.1606   -7.9937    1.1123 C   0  0  0  0  0  0  0  0  0  0  0  0
    0.3471   -8.9654    0.1247 C   0  0  0  0  0  0  0  0  0  0  0  0
    0.6123  -10.2752    0.4870 C   0  0  0  0  0  0  0  0  0  0  0  0
    0.6932  -10.6228    1.8227 C   0  0  0  0  0  0  0  0  0  0  0  0
    0.9826  -12.0499    2.2108 C   0  0  0  0  0  0  0  0  0  0  0  0
    1.1424  -12.8994    0.9484 C   0  0  0  0  0  0  0  0  0  0  0  0
    2.2745  -12.1040    3.0288 C   0  0  0  0  0  0  0  0  0  0  0  0
   -0.1752  -12.5952    3.0493 C   0  0  0  0  0  0  0  0  0  0  0  0
    0.2688   -8.6248   -1.1893 O   0  0  0  0  0  0  0  0  0  0  0  0
    0.4702   -9.6694   -2.1434 C   0  0  0  0  0  0  0  0  0  0  0  0
    0.3451   -9.0994   -3.5577 C   0  0  0  0  0  0  0  0  0  0  0  0
   -0.1239   -6.5889    0.7301 C   0  0  0  0  0  0  0  0  0  0  0  0
   -0.3237   -5.5565    1.5849 C   0  0  0  0  0  0  0  0  0  0  0  0
   -0.5578   -4.4176    0.8215 N   0  0  0  0  0  0  0  0  0  0  0  0
   -0.8229   -3.0811    1.0281 C   0  0  0  0  0  0  0  0  0  0  0  0
   -0.9972   -2.2530   -0.0005 C   0  0  0  0  0  0  0  0  0  0  0  0
   -0.7977   -3.3500   -1.3957 S   0  0  0  0  0  0  0  0  0  0  0  0
   -0.4841   -4.8412   -0.4799 C   0  0  0  0  0  0  0  0  0  0  0  0
   -0.2292   -6.1162   -0.5290 N   0  0  0  0  0  0  0  0  0  0  0  0
   -1.2926   -0.7753    0.0102 C   0  0  0  0  0  0  0  0  0  0  0  0
    0.0021   -0.0041    0.0020 C   0  0  0  0  0  0  0  0  0  0  0  0
    1.0565   -0.5939   -0.0112 O   0  0  0  0  0  0  0  0  0  0  0  0
   -0.2350  -10.3290    6.6335 H   0  0  0  0  0  0  0  0  0  0  0  0
    1.5101   -9.9789    6.6195 H   0  0  0  0  0  0  0  0  0  0  0  0
    0.3626   -8.7595    7.2234 H   0  0  0  0  0  0  0  0  0  0  0  0
    1.1390   -8.1956    4.9370 H   0  0  0  0  0  0  0  0  0  0  0  0
   -0.6062   -8.5457    4.9509 H   0  0  0  0  0  0  0  0  0  0  0  0
    0.1099   -7.6006    3.2230 H   0  0  0  0  0  0  0  0  0  0  0  0
    0.7566  -11.0266   -0.2752 H   0  0  0  0  0  0  0  0  0  0  0  0
    1.9672  -12.5109    0.3510 H   0  0  0  0  0  0  0  0  0  0  0  0
    1.3517  -13.9316    1.2291 H   0  0  0  0  0  0  0  0  0  0  0  0
    0.2220  -12.8608    0.3656 H   0  0  0  0  0  0  0  0  0  0  0  0
    2.1606  -11.4988    3.9282 H   0  0  0  0  0  0  0  0  0  0  0  0
    2.4838  -13.1362    3.3095 H   0  0  0  0  0  0  0  0  0  0  0  0
    3.0993  -11.7155    2.4314 H   0  0  0  0  0  0  0  0  0  0  0  0
   -1.0955  -12.5566    2.4666 H   0  0  0  0  0  0  0  0  0  0  0  0
    0.0341  -13.6274    3.3301 H   0  0  0  0  0  0  0  0  0  0  0  0
   -0.2890  -11.9900    3.9487 H   0  0  0  0  0  0  0  0  0  0  0  0
    1.4642  -10.0963   -2.0103 H   0  0  0  0  0  0  0  0  0  0  0  0
   -0.2812  -10.4453   -1.9966 H   0  0  0  0  0  0  0  0  0  0  0  0
    0.4987   -9.8961   -4.2855 H   0  0  0  0  0  0  0  0  0  0  0  0
   -0.6489   -8.6724   -3.6908 H   0  0  0  0  0  0  0  0  0  0  0  0
    1.0965   -8.3234   -3.7044 H   0  0  0  0  0  0  0  0  0  0  0  0
   -0.3040   -5.6085    2.6635 H   0  0  0  0  0  0  0  0  0  0  0  0
   -0.8904   -2.7005    2.0366 H   0  0  0  0  0  0  0  0  0  0  0  0
   -1.8592   -0.5245    0.9070 H   0  0  0  0  0  0  0  0  0  0  0  0
   -1.8762   -0.5150   -0.8728 H   0  0  0  0  0  0  0  0  0  0  0  0
   -0.0161    1.3381    0.0094 O   0  5  0  0  0  0  0  0  0  0  0  0
  1  2  1  0  0  0  0
  1 28  1  0  0  0  0
  1 29  1  0  0  0  0
  1 30  1  0  0  0  0
  2  3  1  0  0  0  0
  2 31  1  0  0  0  0
  2 32  1  0  0  0  0
  3  4  1  0  0  0  0
  4  9  2  0  0  0  0
  4  5  1  0  0  0  0
  5  6  2  0  0  0  0
  5 33  1  0  0  0  0
  6  7  1  0  0  0  0
  6 17  1  0  0  0  0
  7  8  2  0  0  0  0
  7 14  1  0  0  0  0
  8  9  1  0  0  0  0
  8 34  1  0  0  0  0
  9 10  1  0  0  0  0
 10 11  1  0  0  0  0
 10 12  1  0  0  0  0
 10 13  1  0  0  0  0
 11 35  1  0  0  0  0
 11 36  1  0  0  0  0
 11 37  1  0  0  0  0
 12 38  1  0  0  0  0
 12 39  1  0  0  0  0
 12 40  1  0  0  0  0
 13 41  1  0  0  0  0
 13 42  1  0  0  0  0
 13 43  1  0  0  0  0
 14 15  1  0  0  0  0
 15 16  1  0  0  0  0
 15 44  1  0  0  0  0
 15 45  1  0  0  0  0
 16 46  1  0  0  0  0
 16 47  1  0  0  0  0
 16 48  1  0  0  0  0
 17 24  1  0  0  0  0
 17 18  2  0  0  0  0
 18 19  1  0  0  0  0
 18 49  1  0  0  0  0
 19 23  1  0  0  0  0
 19 20  1  0  0  0  0
 20 21  2  0  0  0  0
 20 50  1  0  0  0  0
 21 22  1  0  0  0  0
 21 25  1  0  0  0  0
 22 23  1  0  0  0  0
 23 24  2  0  0  0  0
 25 26  1  0  0  0  0
 25 51  1  0  0  0  0
 25 52  1  0  0  0  0
 26 27  2  0  0  0  0
 26 53  1  0  0  0  0
M  CHG  1  53  -1
M  END
$$$$
ZINC03868931
  -OEChem-08230709463D

 54 56  0     0  0  0  0  0  0999 V2000
    0.5157   -9.5517    6.4905 C   0  0  0  0  0  0  0  0  0  0  0  0
    0.3883   -8.9729    5.0799 C   0  0  0  0  0  0  0  0  0  0  0  0
    0.5889  -10.0114    4.1190 O   0  0  0  0  0  0  0  0  0  0  0  0
    0.5085   -9.6626    2.8072 C   0  0  0  0  0  0  0  0  0  0  0  0
    0.2484   -8.3482    2.4560 C   0  0  0  0  0  0  0  0  0  0  0  0
    0.1606   -7.9937    1.1123 C   0  0  0  0  0  0  0  0  0  0  0  0
    0.3471   -8.9654    0.1247 C   0  0  0  0  0  0  0  0  0  0  0  0
    0.6123  -10.2752    0.4870 C   0  0  0  0  0  0  0  0  0  0  0  0
    0.6932  -10.6228    1.8227 C   0  0  0  0  0  0  0  0  0  0  0  0
    0.9826  -12.0499    2.2108 C   0  0  0  0  0  0  0  0  0  0  0  0
    1.1424  -12.8994    0.9484 C   0  0  0  0  0  0  0  0  0  0  0  0
    2.2745  -12.1040    3.0288 C   0  0  0  0  0  0  0  0  0  0  0  0
   -0.1752  -12.5952    3.0493 C   0  0  0  0  0  0  0  0  0  0  0  0
    0.2688   -8.6248   -1.1893 O   0  0  0  0  0  0  0  0  0  0  0  0
    0.4702   -9.6694   -2.1434 C   0  0  0  0  0  0  0  0  0  0  0  0
    0.3451   -9.0994   -3.5577 C   0  0  0  0  0  0  0  0  0  0  0  0
   -0.1239   -6.5889    0.7301 C   0  0  0  0  0  0  0  0  0  0  0  0
   -0.3237   -5.5565    1.5849 C   0  0  0  0  0  0  0  0  0  0  0  0
   -0.5578   -4.4176    0.8215 N   0  0  0  0  0  0  0  0  0  0  0  0
   -0.8229   -3.0811    1.0281 C   0  0  0  0  0  0  0  0  0  0  0  0
   -0.9972   -2.2530   -0.0005 C   0  0  0  0  0  0  0  0  0  0  0  0
   -0.7977   -3.3500   -1.3957 S   0  0  0  0  0  0  0  0  0  0  0  0
   -0.4841   -4.8412   -0.4799 C   0  0  0  0  0  0  0  0  0  0  0  0
   -1.2926   -0.7753    0.0102 C   0  0  0  0  0  0  0  0  0  0  0  0
    0.0021   -0.0041    0.0020 C   0  0  0  0  0  0  0  0  0  0  0  0
    1.0565   -0.5939   -0.0112 O   0  0  0  0  0  0  0  0  0  0  0  0
   -0.2350  -10.3290    6.6335 H   0  0  0  0  0  0  0  0  0  0  0  0
    1.5101   -9.9789    6.6195 H   0  0  0  0  0  0  0  0  0  0  0  0
    0.3626   -8.7595    7.2234 H   0  0  0  0  0  0  0  0  0  0  0  0
    1.1390   -8.1956    4.9370 H   0  0  0  0  0  0  0  0  0  0  0  0
   -0.6062   -8.5457    4.9509 H   0  0  0  0  0  0  0  0  0  0  0  0
    0.1099   -7.6006    3.2230 H   0  0  0  0  0  0  0  0  0  0  0  0
    0.7566  -11.0266   -0.2752 H   0  0  0  0  0  0  0  0  0  0  0  0
    1.9672  -12.5109    0.3510 H   0  0  0  0  0  0  0  0  0  0  0  0
    1.3517  -13.9316    1.2291 H   0  0  0  0  0  0  0  0  0  0  0  0
    0.2220  -12.8608    0.3656 H   0  0  0  0  0  0  0  0  0  0  0  0
    2.1606  -11.4988    3.9282 H   0  0  0  0  0  0  0  0  0  0  0  0
    2.4838  -13.1362    3.3095 H   0  0  0  0  0  0  0  0  0  0  0  0
    3.0993  -11.7155    2.4314 H   0  0  0  0  0  0  0  0  0  0  0  0
   -1.0955  -12.5566    2.4666 H   0  0  0  0  0  0  0  0  0  0  0  0
    0.0341  -13.6274    3.3301 H   0  0  0  0  0  0  0  0  0  0  0  0
   -0.2890  -11.9900    3.9487 H   0  0  0  0  0  0  0  0  0  0  0  0
    1.4642  -10.0963   -2.0103 H   0  0  0  0  0  0  0  0  0  0  0  0
   -0.2812  -10.4453   -1.9966 H   0  0  0  0  0  0  0  0  0  0  0  0
    0.4987   -9.8961   -4.2855 H   0  0  0  0  0  0  0  0  0  0  0  0
   -0.6489   -8.6724   -3.6908 H   0  0  0  0  0  0  0  0  0  0  0  0
    1.0965   -8.3234   -3.7044 H   0  0  0  0  0  0  0  0  0  0  0  0
   -0.3040   -5.6085    2.6635 H   0  0  0  0  0  0  0  0  0  0  0  0
   -0.8904   -2.7005    2.0366 H   0  0  0  0  0  0  0  0  0  0  0  0
   -1.8592   -0.5245    0.9070 H   0  0  0  0  0  0  0  0  0  0  0  0
   -1.8762   -0.5150   -0.8728 H   0  0  0  0  0  0  0  0  0  0  0  0
   -0.0161    1.3381    0.0094 O   0  5  0  0  0  0  0  0  0  0  0  0
   -0.2296   -6.1142   -0.5258 N   0  3  0  0  0  0  0  0  0  0  0  0
   -0.1255   -6.6699   -1.3829 H   0  0  0  0  0  0  0  0  0  0  0  0
  1  2  1  0  0  0  0
  1 27  1  0  0  0  0
  1 28  1  0  0  0  0
  1 29  1  0  0  0  0
  2  3  1  0  0  0  0
  2 30  1  0  0  0  0
  2 31  1  0  0  0  0
  3  4  1  0  0  0  0
  4  9  2  0  0  0  0
  4  5  1  0  0  0  0
  5  6  2  0  0  0  0
  5 32  1  0  0  0  0
  6  7  1  0  0  0  0
  6 17  1  0  0  0  0
  7  8  2  0  0  0  0
  7 14  1  0  0  0  0
  8  9  1  0  0  0  0
  8 33  1  0  0  0  0
  9 10  1  0  0  0  0
 10 11  1  0  0  0  0
 10 12  1  0  0  0  0
 10 13  1  0  0  0  0
 11 34  1  0  0  0  0
 11 35  1  0  0  0  0
 11 36  1  0  0  0  0
 12 37  1  0  0  0  0
 12 38  1  0  0  0  0
 12 39  1  0  0  0  0
 13 40  1  0  0  0  0
 13 41  1  0  0  0  0
 13 42  1  0  0  0  0
 14 15  1  0  0  0  0
 15 16  1  0  0  0  0
 15 43  1  0  0  0  0
 15 44  1  0  0  0  0
 16 45  1  0  0  0  0
 16 46  1  0  0  0  0
 16 47  1  0  0  0  0
 17 18  2  0  0  0  0
 17 53  1  0  0  0  0
 18 19  1  0  0  0  0
 18 48  1  0  0  0  0
 19 23  1  0  0  0  0
 19 20  1  0  0  0  0
 20 21  2  0  0  0  0
 20 49  1  0  0  0  0
 21 22  1  0  0  0  0
 21 24  1  0  0  0  0
 22 23  1  0  0  0  0
 23 53  2  0  0  0  0
 24 25  1  0  0  0  0
 24 50  1  0  0  0  0
 24 51  1  0  0  0  0
 25 26  2  0  0  0  0
 25 52  1  0  0  0  0
 53 54  1  0  0  0  0
M  CHG  2  52  -1  53   1
M  END
$$$$
ZINC03868932
  -OEChem-08230709463D

 53 55  0     0  0  0  0  0  0999 V2000
    1.2336  -13.4798   -1.2230 C   0  0  0  0  0  0  0  0  0  0  0  0
    1.0603  -12.5581   -0.0141 C   0  0  0  0  0  0  0  0  0  0  0  0
    0.7912  -11.2286   -0.4634 O   0  0  0  0  0  0  0  0  0  0  0  0
    0.6100  -10.2785    0.4927 C   0  0  0  0  0  0  0  0  0  0  0  0
    0.6894  -10.6204    1.8341 C   0  0  0  0  0  0  0  0  0  0  0  0
    0.5050   -9.6582    2.8104 C   0  0  0  0  0  0  0  0  0  0  0  0
    0.2472   -8.3489    2.4571 C   0  0  0  0  0  0  0  0  0  0  0  0
    0.1593   -7.9941    1.1123 C   0  0  0  0  0  0  0  0  0  0  0  0
    0.3448   -8.9649    0.1257 C   0  0  0  0  0  0  0  0  0  0  0  0
    0.2667   -8.6259   -1.1889 O   0  0  0  0  0  0  0  0  0  0  0  0
    1.4781   -8.2153   -1.8261 C   0  0  0  0  0  0  0  0  0  0  0  0
    1.1944   -7.8763   -3.2908 C   0  0  0  0  0  0  0  0  0  0  0  0
   -0.1244   -6.5890    0.7301 C   0  0  0  0  0  0  0  0  0  0  0  0
   -0.3233   -5.5565    1.5849 C   0  0  0  0  0  0  0  0  0  0  0  0
   -0.5578   -4.4176    0.8215 N   0  0  0  0  0  0  0  0  0  0  0  0
   -0.8229   -3.0811    1.0281 C   0  0  0  0  0  0  0  0  0  0  0  0
   -0.9972   -2.2530   -0.0005 C   0  0  0  0  0  0  0  0  0  0  0  0
   -0.7977   -3.3500   -1.3957 S   0  0  0  0  0  0  0  0  0  0  0  0
   -0.4845   -4.8413   -0.4799 C   0  0  0  0  0  0  0  0  0  0  0  0
   -0.2300   -6.1164   -0.5290 N   0  0  0  0  0  0  0  0  0  0  0  0
   -1.2926   -0.7753    0.0102 C   0  0  0  0  0  0  0  0  0  0  0  0
    0.0021   -0.0041    0.0020 C   0  0  0  0  0  0  0  0  0  0  0  0
    1.0565   -0.5939   -0.0112 O   0  0  0  0  0  0  0  0  0  0  0  0
    0.5921  -10.0395    4.2658 C   0  0  0  0  0  0  0  0  0  0  0  0
    0.8913  -11.5353    4.3841 C   0  0  0  0  0  0  0  0  0  0  0  0
    1.7119   -9.2409    4.9360 C   0  0  0  0  0  0  0  0  0  0  0  0
   -0.7383   -9.7294    4.9548 C   0  0  0  0  0  0  0  0  0  0  0  0
    0.3200  -13.4751   -1.8174 H   0  0  0  0  0  0  0  0  0  0  0  0
    2.0655  -13.1269   -1.8325 H   0  0  0  0  0  0  0  0  0  0  0  0
    1.4388  -14.4939   -0.8802 H   0  0  0  0  0  0  0  0  0  0  0  0
    1.9739  -12.5628    0.5804 H   0  0  0  0  0  0  0  0  0  0  0  0
    0.2284  -12.9110    0.5955 H   0  0  0  0  0  0  0  0  0  0  0  0
    0.8956  -11.6420    2.1176 H   0  0  0  0  0  0  0  0  0  0  0  0
    0.1091   -7.6002    3.2231 H   0  0  0  0  0  0  0  0  0  0  0  0
    1.8748   -7.3353   -1.3197 H   0  0  0  0  0  0  0  0  0  0  0  0
    2.2076   -9.0236   -1.7749 H   0  0  0  0  0  0  0  0  0  0  0  0
    0.7977   -8.7563   -3.7972 H   0  0  0  0  0  0  0  0  0  0  0  0
    0.4649   -7.0680   -3.3420 H   0  0  0  0  0  0  0  0  0  0  0  0
    2.1184   -7.5632   -3.7768 H   0  0  0  0  0  0  0  0  0  0  0  0
   -0.3039   -5.6086    2.6635 H   0  0  0  0  0  0  0  0  0  0  0  0
   -0.8904   -2.7005    2.0366 H   0  0  0  0  0  0  0  0  0  0  0  0
   -1.8592   -0.5245    0.9070 H   0  0  0  0  0  0  0  0  0  0  0  0
   -1.8762   -0.5150   -0.8728 H   0  0  0  0  0  0  0  0  0  0  0  0
    1.8391  -11.7562    3.8932 H   0  0  0  0  0  0  0  0  0  0  0  0
    0.9543  -11.8111    5.4367 H   0  0  0  0  0  0  0  0  0  0  0  0
    0.0935  -12.1042    3.9066 H   0  0  0  0  0  0  0  0  0  0  0  0
    1.4988   -8.1753    4.8518 H   0  0  0  0  0  0  0  0  0  0  0  0
    1.7749   -9.5167    5.9887 H   0  0  0  0  0  0  0  0  0  0  0  0
    2.6597   -9.4618    4.4452 H   0  0  0  0  0  0  0  0  0  0  0  0
   -1.5360  -10.2983    4.4773 H   0  0  0  0  0  0  0  0  0  0  0  0
   -0.6753  -10.0052    6.0074 H   0  0  0  0  0  0  0  0  0  0  0  0
   -0.9514   -8.6638    4.8705 H   0  0  0  0  0  0  0  0  0  0  0  0
   -0.0161    1.3381    0.0094 O   0  5  0  0  0  0  0  0  0  0  0  0
  1  2  1  0  0  0  0
  1 28  1  0  0  0  0
  1 29  1  0  0  0  0
  1 30  1  0  0  0  0
  2  3  1  0  0  0  0
  2 31  1  0  0  0  0
  2 32  1  0  0  0  0
  3  4  1  0  0  0  0
  4  9  2  0  0  0  0
  4  5  1  0  0  0  0
  5  6  2  0  0  0  0
  5 33  1  0  0  0  0
  6  7  1  0  0  0  0
  6 24  1  0  0  0  0
  7  8  2  0  0  0  0
  7 34  1  0  0  0  0
  8  9  1  0  0  0  0
  8 13  1  0  0  0  0
  9 10  1  0  0  0  0
 10 11  1  0  0  0  0
 11 12  1  0  0  0  0
 11 35  1  0  0  0  0
 11 36  1  0  0  0  0
 12 37  1  0  0  0  0
 12 38  1  0  0  0  0
 12 39  1  0  0  0  0
 13 20  1  0  0  0  0
 13 14  2  0  0  0  0
 14 15  1  0  0  0  0
 14 40  1  0  0  0  0
 15 19  1  0  0  0  0
 15 16  1  0  0  0  0
 16 17  2  0  0  0  0
 16 41  1  0  0  0  0
 17 18  1  0  0  0  0
 17 21  1  0  0  0  0
 18 19  1  0  0  0  0
 19 20  2  0  0  0  0
 21 22  1  0  0  0  0
 21 42  1  0  0  0  0
 21 43  1  0  0  0  0
 22 23  2  0  0  0  0
 22 53  1  0  0  0  0
 24 25  1  0  0  0  0
 24 26  1  0  0  0  0
 24 27  1  0  0  0  0
 25 44  1  0  0  0  0
 25 45  1  0  0  0  0
 25 46  1  0  0  0  0
 26 47  1  0  0  0  0
 26 48  1  0  0  0  0
 26 49  1  0  0  0  0
 27 50  1  0  0  0  0
 27 51  1  0  0  0  0
 27 52  1  0  0  0  0
M  CHG  1  53  -1
M  END
$$$$
ZINC03868932
  -OEChem-08230709463D

 54 56  0     0  0  0  0  0  0999 V2000
    1.2336  -13.4798   -1.2230 C   0  0  0  0  0  0  0  0  0  0  0  0
    1.0603  -12.5581   -0.0141 C   0  0  0  0  0  0  0  0  0  0  0  0
    0.7912  -11.2286   -0.4634 O   0  0  0  0  0  0  0  0  0  0  0  0
    0.6100  -10.2785    0.4927 C   0  0  0  0  0  0  0  0  0  0  0  0
    0.6894  -10.6204    1.8341 C   0  0  0  0  0  0  0  0  0  0  0  0
    0.5050   -9.6582    2.8104 C   0  0  0  0  0  0  0  0  0  0  0  0
    0.2472   -8.3489    2.4571 C   0  0  0  0  0  0  0  0  0  0  0  0
    0.1593   -7.9941    1.1123 C   0  0  0  0  0  0  0  0  0  0  0  0
    0.3448   -8.9649    0.1257 C   0  0  0  0  0  0  0  0  0  0  0  0
    0.2667   -8.6259   -1.1889 O   0  0  0  0  0  0  0  0  0  0  0  0
    1.4781   -8.2153   -1.8261 C   0  0  0  0  0  0  0  0  0  0  0  0
    1.1944   -7.8763   -3.2908 C   0  0  0  0  0  0  0  0  0  0  0  0
   -0.1244   -6.5890    0.7301 C   0  0  0  0  0  0  0  0  0  0  0  0
   -0.3233   -5.5565    1.5849 C   0  0  0  0  0  0  0  0  0  0  0  0
   -0.5578   -4.4176    0.8215 N   0  0  0  0  0  0  0  0  0  0  0  0
   -0.8229   -3.0811    1.0281 C   0  0  0  0  0  0  0  0  0  0  0  0
   -0.9972   -2.2530   -0.0005 C   0  0  0  0  0  0  0  0  0  0  0  0
   -0.7977   -3.3500   -1.3957 S   0  0  0  0  0  0  0  0  0  0  0  0
   -0.4845   -4.8413   -0.4799 C   0  0  0  0  0  0  0  0  0  0  0  0
   -1.2926   -0.7753    0.0102 C   0  0  0  0  0  0  0  0  0  0  0  0
    0.0021   -0.0041    0.0020 C   0  0  0  0  0  0  0  0  0  0  0  0
    1.0565   -0.5939   -0.0112 O   0  0  0  0  0  0  0  0  0  0  0  0
    0.5921  -10.0395    4.2658 C   0  0  0  0  0  0  0  0  0  0  0  0
    0.8913  -11.5353    4.3841 C   0  0  0  0  0  0  0  0  0  0  0  0
    1.7119   -9.2409    4.9360 C   0  0  0  0  0  0  0  0  0  0  0  0
   -0.7383   -9.7294    4.9548 C   0  0  0  0  0  0  0  0  0  0  0  0
    0.3200  -13.4751   -1.8174 H   0  0  0  0  0  0  0  0  0  0  0  0
    2.0655  -13.1269   -1.8325 H   0  0  0  0  0  0  0  0  0  0  0  0
    1.4388  -14.4939   -0.8802 H   0  0  0  0  0  0  0  0  0  0  0  0
    1.9739  -12.5628    0.5804 H   0  0  0  0  0  0  0  0  0  0  0  0
    0.2284  -12.9110    0.5955 H   0  0  0  0  0  0  0  0  0  0  0  0
    0.8956  -11.6420    2.1176 H   0  0  0  0  0  0  0  0  0  0  0  0
    0.1091   -7.6002    3.2231 H   0  0  0  0  0  0  0  0  0  0  0  0
    1.8748   -7.3353   -1.3197 H   0  0  0  0  0  0  0  0  0  0  0  0
    2.2076   -9.0236   -1.7749 H   0  0  0  0  0  0  0  0  0  0  0  0
    0.7977   -8.7563   -3.7972 H   0  0  0  0  0  0  0  0  0  0  0  0
    0.4649   -7.0680   -3.3420 H   0  0  0  0  0  0  0  0  0  0  0  0
    2.1184   -7.5632   -3.7768 H   0  0  0  0  0  0  0  0  0  0  0  0
   -0.3039   -5.6086    2.6635 H   0  0  0  0  0  0  0  0  0  0  0  0
   -0.8904   -2.7005    2.0366 H   0  0  0  0  0  0  0  0  0  0  0  0
   -1.8592   -0.5245    0.9070 H   0  0  0  0  0  0  0  0  0  0  0  0
   -1.8762   -0.5150   -0.8728 H   0  0  0  0  0  0  0  0  0  0  0  0
    1.8391  -11.7562    3.8932 H   0  0  0  0  0  0  0  0  0  0  0  0
    0.9543  -11.8111    5.4367 H   0  0  0  0  0  0  0  0  0  0  0  0
    0.0935  -12.1042    3.9066 H   0  0  0  0  0  0  0  0  0  0  0  0
    1.4988   -8.1753    4.8518 H   0  0  0  0  0  0  0  0  0  0  0  0
    1.7749   -9.5167    5.9887 H   0  0  0  0  0  0  0  0  0  0  0  0
    2.6597   -9.4618    4.4452 H   0  0  0  0  0  0  0  0  0  0  0  0
   -1.5360  -10.2983    4.4773 H   0  0  0  0  0  0  0  0  0  0  0  0
   -0.6753  -10.0052    6.0074 H   0  0  0  0  0  0  0  0  0  0  0  0
   -0.9514   -8.6638    4.8705 H   0  0  0  0  0  0  0  0  0  0  0  0
   -0.0161    1.3381    0.0094 O   0  5  0  0  0  0  0  0  0  0  0  0
   -0.2304   -6.1144   -0.5258 N   0  3  0  0  0  0  0  0  0  0  0  0
   -0.1268   -6.6702   -1.3829 H   0  0  0  0  0  0  0  0  0  0  0  0
  1  2  1  0  0  0  0
  1 27  1  0  0  0  0
  1 28  1  0  0  0  0
  1 29  1  0  0  0  0
  2  3  1  0  0  0  0
  2 30  1  0  0  0  0
  2 31  1  0  0  0  0
  3  4  1  0  0  0  0
  4  9  2  0  0  0  0
  4  5  1  0  0  0  0
  5  6  2  0  0  0  0
  5 32  1  0  0  0  0
  6  7  1  0  0  0  0
  6 23  1  0  0  0  0
  7  8  2  0  0  0  0
  7 33  1  0  0  0  0
  8  9  1  0  0  0  0
  8 13  1  0  0  0  0
  9 10  1  0  0  0  0
 10 11  1  0  0  0  0
 11 12  1  0  0  0  0
 11 34  1  0  0  0  0
 11 35  1  0  0  0  0
 12 36  1  0  0  0  0
 12 37  1  0  0  0  0
 12 38  1  0  0  0  0
 13 14  2  0  0  0  0
 13 53  1  0  0  0  0
 14 15  1  0  0  0  0
 14 39  1  0  0  0  0
 15 19  1  0  0  0  0
 15 16  1  0  0  0  0
 16 17  2  0  0  0  0
 16 40  1  0  0  0  0
 17 18  1  0  0  0  0
 17 20  1  0  0  0  0
 18 19  1  0  0  0  0
 19 53  2  0  0  0  0
 20 21  1  0  0  0  0
 20 41  1  0  0  0  0
 20 42  1  0  0  0  0
 21 22  2  0  0  0  0
 21 52  1  0  0  0  0
 23 24  1  0  0  0  0
 23 25  1  0  0  0  0
 23 26  1  0  0  0  0
 24 43  1  0  0  0  0
 24 44  1  0  0  0  0
 24 45  1  0  0  0  0
 25 46  1  0  0  0  0
 25 47  1  0  0  0  0
 25 48  1  0  0  0  0
 26 49  1  0  0  0  0
 26 50  1  0  0  0  0
 26 51  1  0  0  0  0
 53 54  1  0  0  0  0
M  CHG  2  52  -1  53   1
M  END
$$$$
ZINC03868951
  -OEChem-08230709463D

 55 57  0     0  0  0  0  0  0999 V2000
    5.0542    1.8925   -1.1317 C   0  0  0  0  0  0  0  0  0  0  0  0
    3.6432    1.3833   -1.4333 C   0  0  0  0  0  0  0  0  0  0  0  0
    2.7723    1.7256   -0.3533 O   0  0  0  0  0  0  0  0  0  0  0  0
    1.4507    1.4548   -0.5169 C   0  0  0  0  0  0  0  0  0  0  0  0
    0.9825    0.1406   -0.3964 C   0  0  0  0  0  0  0  0  0  0  0  0
   -0.3757   -0.1264   -0.5657 C   0  0  0  0  0  0  0  0  0  0  0  0
   -1.2494    0.9037   -0.8505 C   0  0  0  0  0  0  0  0  0  0  0  0
   -0.7829    2.2007   -0.9684 C   0  0  0  0  0  0  0  0  0  0  0  0
    0.5622    2.4771   -0.8024 C   0  0  0  0  0  0  0  0  0  0  0  0
    1.0612    3.8931   -0.9332 C   0  0  0  0  0  0  0  0  0  0  0  0
   -0.1273    4.8367   -1.1284 C   0  0  0  0  0  0  0  0  0  0  0  0
    1.8208    4.2854    0.3356 C   0  0  0  0  0  0  0  0  0  0  0  0
    1.9966    3.9949   -2.1396 C   0  0  0  0  0  0  0  0  0  0  0  0
   -2.7170    0.6143   -1.0334 C   0  0  0  0  0  0  0  0  0  0  0  0
   -3.1492    1.0382   -2.4385 C   0  0  0  0  0  0  0  0  0  0  0  0
   -2.9676   -0.8842   -0.8530 C   0  0  0  0  0  0  0  0  0  0  0  0
   -3.5241    1.3951    0.0058 C   0  0  0  0  0  0  0  0  0  0  0  0
    1.9235   -0.9584   -0.0916 C   0  0  0  0  0  0  0  0  0  0  0  0
    2.7900   -0.8345    0.9314 C   0  0  0  0  0  0  0  0  0  0  0  0
    3.6651   -2.3896    0.8676 S   0  0  0  0  0  0  0  0  0  0  0  0
    2.8079   -3.0918   -0.5227 C   0  0  0  0  0  0  0  0  0  0  0  0
    1.9057   -2.1129   -0.8560 N   0  0  0  0  0  0  0  0  0  0  0  0
    1.2124   -2.6099   -1.9433 C   0  0  0  0  0  0  0  0  0  0  0  0
    1.7051   -3.8490   -2.2169 C   0  0  0  0  0  0  0  0  0  0  0  0
    2.6894   -4.1123   -1.3183 N   0  0  0  0  0  0  0  0  0  0  0  0
    1.2523   -4.7438   -3.2940 C   0  0  0  0  0  0  0  0  0  0  0  0
    0.3573   -4.3943   -4.0385 O   0  0  0  0  0  0  0  0  0  0  0  0
    5.7185    1.6314   -1.9555 H   0  0  0  0  0  0  0  0  0  0  0  0
    5.0317    2.9757   -1.0123 H   0  0  0  0  0  0  0  0  0  0  0  0
    5.4174    1.4331   -0.2124 H   0  0  0  0  0  0  0  0  0  0  0  0
    3.6657    0.3001   -1.5527 H   0  0  0  0  0  0  0  0  0  0  0  0
    3.2799    1.8427   -2.3526 H   0  0  0  0  0  0  0  0  0  0  0  0
   -0.7435   -1.1376   -0.4737 H   0  0  0  0  0  0  0  0  0  0  0  0
   -1.4717    3.0009   -1.1954 H   0  0  0  0  0  0  0  0  0  0  0  0
   -0.7937    4.7642   -0.2689 H   0  0  0  0  0  0  0  0  0  0  0  0
    0.2336    5.8608   -1.2229 H   0  0  0  0  0  0  0  0  0  0  0  0
   -0.6685    4.5572   -2.0323 H   0  0  0  0  0  0  0  0  0  0  0  0
    2.6675    3.6132    0.4747 H   0  0  0  0  0  0  0  0  0  0  0  0
    2.1817    5.3096    0.2411 H   0  0  0  0  0  0  0  0  0  0  0  0
    1.1544    4.2129    1.1951 H   0  0  0  0  0  0  0  0  0  0  0  0
    1.5512    3.4776   -2.9894 H   0  0  0  0  0  0  0  0  0  0  0  0
    2.1504    5.0439   -2.3927 H   0  0  0  0  0  0  0  0  0  0  0  0
    2.9547    3.5356   -1.8963 H   0  0  0  0  0  0  0  0  0  0  0  0
   -2.5742    0.4819   -3.1788 H   0  0  0  0  0  0  0  0  0  0  0  0
   -4.2107    0.8289   -2.5707 H   0  0  0  0  0  0  0  0  0  0  0  0
   -2.9706    2.1058   -2.5670 H   0  0  0  0  0  0  0  0  0  0  0  0
   -2.6597   -1.1862    0.1480 H   0  0  0  0  0  0  0  0  0  0  0  0
   -4.0292   -1.0935   -0.9852 H   0  0  0  0  0  0  0  0  0  0  0  0
   -2.3926   -1.4405   -1.5933 H   0  0  0  0  0  0  0  0  0  0  0  0
   -3.3455    2.4626   -0.1227 H   0  0  0  0  0  0  0  0  0  0  0  0
   -4.5856    1.1858   -0.1264 H   0  0  0  0  0  0  0  0  0  0  0  0
   -3.2161    1.0931    1.0068 H   0  0  0  0  0  0  0  0  0  0  0  0
    2.9215   -0.0082    1.6143 H   0  0  0  0  0  0  0  0  0  0  0  0
    0.4200   -2.1071   -2.4776 H   0  0  0  0  0  0  0  0  0  0  0  0
    1.8301   -5.9510   -3.4549 O   0  5  0  0  0  0  0  0  0  0  0  0
  1  2  1  0  0  0  0
  1 28  1  0  0  0  0
  1 29  1  0  0  0  0
  1 30  1  0  0  0  0
  2  3  1  0  0  0  0
  2 31  1  0  0  0  0
  2 32  1  0  0  0  0
  3  4  1  0  0  0  0
  4  9  2  0  0  0  0
  4  5  1  0  0  0  0
  5  6  2  0  0  0  0
  5 18  1  0  0  0  0
  6  7  1  0  0  0  0
  6 33  1  0  0  0  0
  7  8  2  0  0  0  0
  7 14  1  0  0  0  0
  8  9  1  0  0  0  0
  8 34  1  0  0  0  0
  9 10  1  0  0  0  0
 10 11  1  0  0  0  0
 10 12  1  0  0  0  0
 10 13  1  0  0  0  0
 11 35  1  0  0  0  0
 11 36  1  0  0  0  0
 11 37  1  0  0  0  0
 12 38  1  0  0  0  0
 12 39  1  0  0  0  0
 12 40  1  0  0  0  0
 13 41  1  0  0  0  0
 13 42  1  0  0  0  0
 13 43  1  0  0  0  0
 14 15  1  0  0  0  0
 14 16  1  0  0  0  0
 14 17  1  0  0  0  0
 15 44  1  0  0  0  0
 15 45  1  0  0  0  0
 15 46  1  0  0  0  0
 16 47  1  0  0  0  0
 16 48  1  0  0  0  0
 16 49  1  0  0  0  0
 17 50  1  0  0  0  0
 17 51  1  0  0  0  0
 17 52  1  0  0  0  0
 18 22  1  0  0  0  0
 18 19  2  0  0  0  0
 19 20  1  0  0  0  0
 19 53  1  0  0  0  0
 20 21  1  0  0  0  0
 21 25  2  0  0  0  0
 21 22  1  0  0  0  0
 22 23  1  0  0  0  0
 23 24  2  0  0  0  0
 23 54  1  0  0  0  0
 24 25  1  0  0  0  0
 24 26  1  0  0  0  0
 26 27  2  0  0  0  0
 26 55  1  0  0  0  0
M  CHG  1  55  -1
M  END
$$$$
ZINC03868951
  -OEChem-08230709463D

 56 58  0     0  0  0  0  0  0999 V2000
    5.0542    1.8925   -1.1317 C   0  0  0  0  0  0  0  0  0  0  0  0
    3.6432    1.3833   -1.4333 C   0  0  0  0  0  0  0  0  0  0  0  0
    2.7723    1.7256   -0.3533 O   0  0  0  0  0  0  0  0  0  0  0  0
    1.4507    1.4548   -0.5169 C   0  0  0  0  0  0  0  0  0  0  0  0
    0.9825    0.1406   -0.3964 C   0  0  0  0  0  0  0  0  0  0  0  0
   -0.3757   -0.1264   -0.5657 C   0  0  0  0  0  0  0  0  0  0  0  0
   -1.2494    0.9037   -0.8505 C   0  0  0  0  0  0  0  0  0  0  0  0
   -0.7829    2.2007   -0.9684 C   0  0  0  0  0  0  0  0  0  0  0  0
    0.5622    2.4771   -0.8024 C   0  0  0  0  0  0  0  0  0  0  0  0
    1.0612    3.8931   -0.9332 C   0  0  0  0  0  0  0  0  0  0  0  0
   -0.1273    4.8367   -1.1284 C   0  0  0  0  0  0  0  0  0  0  0  0
    1.8208    4.2854    0.3356 C   0  0  0  0  0  0  0  0  0  0  0  0
    1.9966    3.9949   -2.1396 C   0  0  0  0  0  0  0  0  0  0  0  0
   -2.7170    0.6143   -1.0334 C   0  0  0  0  0  0  0  0  0  0  0  0
   -3.1492    1.0382   -2.4385 C   0  0  0  0  0  0  0  0  0  0  0  0
   -2.9676   -0.8842   -0.8530 C   0  0  0  0  0  0  0  0  0  0  0  0
   -3.5241    1.3951    0.0058 C   0  0  0  0  0  0  0  0  0  0  0  0
    1.9235   -0.9584   -0.0916 C   0  0  0  0  0  0  0  0  0  0  0  0
    2.7900   -0.8345    0.9314 C   0  0  0  0  0  0  0  0  0  0  0  0
    3.6651   -2.3896    0.8676 S   0  0  0  0  0  0  0  0  0  0  0  0
    2.8079   -3.0918   -0.5227 C   0  0  0  0  0  0  0  0  0  0  0  0
    1.9057   -2.1129   -0.8560 N   0  0  0  0  0  0  0  0  0  0  0  0
    1.2124   -2.6099   -1.9433 C   0  0  0  0  0  0  0  0  0  0  0  0
    1.7051   -3.8490   -2.2169 C   0  0  0  0  0  0  0  0  0  0  0  0
    1.2523   -4.7438   -3.2940 C   0  0  0  0  0  0  0  0  0  0  0  0
    0.3573   -4.3943   -4.0385 O   0  0  0  0  0  0  0  0  0  0  0  0
    5.7185    1.6314   -1.9555 H   0  0  0  0  0  0  0  0  0  0  0  0
    5.0317    2.9757   -1.0123 H   0  0  0  0  0  0  0  0  0  0  0  0
    5.4174    1.4331   -0.2124 H   0  0  0  0  0  0  0  0  0  0  0  0
    3.6657    0.3001   -1.5527 H   0  0  0  0  0  0  0  0  0  0  0  0
    3.2799    1.8427   -2.3526 H   0  0  0  0  0  0  0  0  0  0  0  0
   -0.7435   -1.1376   -0.4737 H   0  0  0  0  0  0  0  0  0  0  0  0
   -1.4717    3.0009   -1.1954 H   0  0  0  0  0  0  0  0  0  0  0  0
   -0.7937    4.7642   -0.2689 H   0  0  0  0  0  0  0  0  0  0  0  0
    0.2336    5.8608   -1.2229 H   0  0  0  0  0  0  0  0  0  0  0  0
   -0.6685    4.5572   -2.0323 H   0  0  0  0  0  0  0  0  0  0  0  0
    2.6675    3.6132    0.4747 H   0  0  0  0  0  0  0  0  0  0  0  0
    2.1817    5.3096    0.2411 H   0  0  0  0  0  0  0  0  0  0  0  0
    1.1544    4.2129    1.1951 H   0  0  0  0  0  0  0  0  0  0  0  0
    1.5512    3.4776   -2.9894 H   0  0  0  0  0  0  0  0  0  0  0  0
    2.1504    5.0439   -2.3927 H   0  0  0  0  0  0  0  0  0  0  0  0
    2.9547    3.5356   -1.8963 H   0  0  0  0  0  0  0  0  0  0  0  0
   -2.5742    0.4819   -3.1788 H   0  0  0  0  0  0  0  0  0  0  0  0
   -4.2107    0.8289   -2.5707 H   0  0  0  0  0  0  0  0  0  0  0  0
   -2.9706    2.1058   -2.5670 H   0  0  0  0  0  0  0  0  0  0  0  0
   -2.6597   -1.1862    0.1480 H   0  0  0  0  0  0  0  0  0  0  0  0
   -4.0292   -1.0935   -0.9852 H   0  0  0  0  0  0  0  0  0  0  0  0
   -2.3926   -1.4405   -1.5933 H   0  0  0  0  0  0  0  0  0  0  0  0
   -3.3455    2.4626   -0.1227 H   0  0  0  0  0  0  0  0  0  0  0  0
   -4.5856    1.1858   -0.1264 H   0  0  0  0  0  0  0  0  0  0  0  0
   -3.2161    1.0931    1.0068 H   0  0  0  0  0  0  0  0  0  0  0  0
    2.9215   -0.0082    1.6143 H   0  0  0  0  0  0  0  0  0  0  0  0
    0.4200   -2.1071   -2.4776 H   0  0  0  0  0  0  0  0  0  0  0  0
    1.8301   -5.9510   -3.4549 O   0  5  0  0  0  0  0  0  0  0  0  0
    2.6864   -4.1077   -1.3186 N   0  3  0  0  0  0  0  0  0  0  0  0
    3.2435   -4.9691   -1.2754 H   0  0  0  0  0  0  0  0  0  0  0  0
  1  2  1  0  0  0  0
  1 27  1  0  0  0  0
  1 28  1  0  0  0  0
  1 29  1  0  0  0  0
  2  3  1  0  0  0  0
  2 30  1  0  0  0  0
  2 31  1  0  0  0  0
  3  4  1  0  0  0  0
  4  9  2  0  0  0  0
  4  5  1  0  0  0  0
  5  6  2  0  0  0  0
  5 18  1  0  0  0  0
  6  7  1  0  0  0  0
  6 32  1  0  0  0  0
  7  8  2  0  0  0  0
  7 14  1  0  0  0  0
  8  9  1  0  0  0  0
  8 33  1  0  0  0  0
  9 10  1  0  0  0  0
 10 11  1  0  0  0  0
 10 12  1  0  0  0  0
 10 13  1  0  0  0  0
 11 34  1  0  0  0  0
 11 35  1  0  0  0  0
 11 36  1  0  0  0  0
 12 37  1  0  0  0  0
 12 38  1  0  0  0  0
 12 39  1  0  0  0  0
 13 40  1  0  0  0  0
 13 41  1  0  0  0  0
 13 42  1  0  0  0  0
 14 15  1  0  0  0  0
 14 16  1  0  0  0  0
 14 17  1  0  0  0  0
 15 43  1  0  0  0  0
 15 44  1  0  0  0  0
 15 45  1  0  0  0  0
 16 46  1  0  0  0  0
 16 47  1  0  0  0  0
 16 48  1  0  0  0  0
 17 49  1  0  0  0  0
 17 50  1  0  0  0  0
 17 51  1  0  0  0  0
 18 22  1  0  0  0  0
 18 19  2  0  0  0  0
 19 20  1  0  0  0  0
 19 52  1  0  0  0  0
 20 21  1  0  0  0  0
 21 22  1  0  0  0  0
 21 55  2  0  0  0  0
 22 23  1  0  0  0  0
 23 24  2  0  0  0  0
 23 53  1  0  0  0  0
 24 25  1  0  0  0  0
 24 55  1  0  0  0  0
 25 26  2  0  0  0  0
 25 54  1  0  0  0  0
 55 56  1  0  0  0  0
M  CHG  2  54  -1  55   1
M  END
$$$$
ZINC03868952
  -OEChem-08230709463D

 55 57  0     1  0  0  0  0  0999 V2000
   -0.1315   -1.2877   -4.7608 C   0  0  0  0  0  0  0  0  0  0  0  0
   -1.3747   -1.9443   -4.1574 C   0  0  0  0  0  0  0  0  0  0  0  0
   -1.3648   -1.7562   -2.6390 C   0  0  1  0  0  0  0  0  0  0  0  0
   -1.2766   -0.6953   -2.4049 H   0  0  0  0  0  0  0  0  0  0  0  0
   -2.6665   -2.3023   -2.0489 C   0  0  0  0  0  0  0  0  0  0  0  0
   -0.1946   -2.4999   -2.0484 C   0  0  0  0  0  0  0  0  0  0  0  0
   -0.0907   -3.8649   -2.2159 C   0  0  0  0  0  0  0  0  0  0  0  0
    0.9930   -4.5527   -1.6682 C   0  0  0  0  0  0  0  0  0  0  0  0
    1.9678   -3.8554   -0.9526 C   0  0  0  0  0  0  0  0  0  0  0  0
    1.8593   -2.4901   -0.7941 C   0  0  0  0  0  0  0  0  0  0  0  0
    0.7768   -1.8102   -1.3361 C   0  0  0  0  0  0  0  0  0  0  0  0
    0.6710   -0.4649   -1.1737 O   0  0  0  0  0  0  0  0  0  0  0  0
   -0.0383   -0.0044   -0.0218 C   0  0  0  0  0  0  0  0  0  0  0  0
   -0.0526    1.5255   -0.0096 C   0  0  0  0  0  0  0  0  0  0  0  0
    2.9141   -1.7354   -0.0267 C   0  0  1  0  0  0  0  0  0  0  0  0
    2.6582   -0.6762   -0.0030 H   0  0  0  0  0  0  0  0  0  0  0  0
    2.9878   -2.2743    1.4034 C   0  0  0  0  0  0  0  0  0  0  0  0
    4.2706   -1.9173   -0.7107 C   0  0  0  0  0  0  0  0  0  0  0  0
    5.3173   -1.0523   -0.0056 C   0  0  0  0  0  0  0  0  0  0  0  0
    1.1086   -6.0164   -1.8458 C   0  0  0  0  0  0  0  0  0  0  0  0
    0.4793   -6.6186   -2.8722 C   0  0  0  0  0  0  0  0  0  0  0  0
    0.9337   -8.3289   -2.6347 S   0  0  0  0  0  0  0  0  0  0  0  0
    1.9247   -8.1146   -1.1743 C   0  0  0  0  0  0  0  0  0  0  0  0
    1.8591   -6.7620   -0.9522 N   0  0  0  0  0  0  0  0  0  0  0  0
    2.6188   -6.5404    0.1807 C   0  0  0  0  0  0  0  0  0  0  0  0
    3.1055   -7.7425    0.5940 C   0  0  0  0  0  0  0  0  0  0  0  0
    2.6556   -8.6913   -0.2679 N   0  0  0  0  0  0  0  0  0  0  0  0
    3.9660   -7.9732    1.7654 C   0  0  0  0  0  0  0  0  0  0  0  0
    4.3044   -7.0382    2.4646 O   0  0  0  0  0  0  0  0  0  0  0  0
   -0.1330   -0.2232   -4.5265 H   0  0  0  0  0  0  0  0  0  0  0  0
    0.7627   -1.7504   -4.3432 H   0  0  0  0  0  0  0  0  0  0  0  0
   -0.1386   -1.4217   -5.8425 H   0  0  0  0  0  0  0  0  0  0  0  0
   -1.3733   -3.0089   -4.3916 H   0  0  0  0  0  0  0  0  0  0  0  0
   -2.2690   -1.4816   -4.5749 H   0  0  0  0  0  0  0  0  0  0  0  0
   -2.6594   -2.1683   -0.9672 H   0  0  0  0  0  0  0  0  0  0  0  0
   -3.5128   -1.7644   -2.4761 H   0  0  0  0  0  0  0  0  0  0  0  0
   -2.7546   -3.3632   -2.2830 H   0  0  0  0  0  0  0  0  0  0  0  0
   -0.8468   -4.4008   -2.7705 H   0  0  0  0  0  0  0  0  0  0  0  0
    2.8080   -4.3841   -0.5272 H   0  0  0  0  0  0  0  0  0  0  0  0
    0.4548   -0.3703    0.8789 H   0  0  0  0  0  0  0  0  0  0  0  0
   -1.0621   -0.3771   -0.0524 H   0  0  0  0  0  0  0  0  0  0  0  0
    0.9712    1.8982    0.0211 H   0  0  0  0  0  0  0  0  0  0  0  0
   -0.5457    1.8914   -0.9102 H   0  0  0  0  0  0  0  0  0  0  0  0
   -0.5936    1.8768    0.8691 H   0  0  0  0  0  0  0  0  0  0  0  0
    3.7507   -1.7285    1.9585 H   0  0  0  0  0  0  0  0  0  0  0  0
    2.0214   -2.1448    1.8907 H   0  0  0  0  0  0  0  0  0  0  0  0
    3.2437   -3.3336    1.3798 H   0  0  0  0  0  0  0  0  0  0  0  0
    4.5678   -2.9645   -0.6557 H   0  0  0  0  0  0  0  0  0  0  0  0
    4.1940   -1.6157   -1.7554 H   0  0  0  0  0  0  0  0  0  0  0  0
    5.0201   -0.0051   -0.0607 H   0  0  0  0  0  0  0  0  0  0  0  0
    5.3939   -1.3538    1.0390 H   0  0  0  0  0  0  0  0  0  0  0  0
    6.2837   -1.1819   -0.4930 H   0  0  0  0  0  0  0  0  0  0  0  0
   -0.1391   -6.1802   -3.6415 H   0  0  0  0  0  0  0  0  0  0  0  0
    2.7945   -5.5853    0.6533 H   0  0  0  0  0  0  0  0  0  0  0  0
    4.3789   -9.2214    2.0631 O   0  5  0  0  0  0  0  0  0  0  0  0
  1  2  1  0  0  0  0
  1 30  1  0  0  0  0
  1 31  1  0  0  0  0
  1 32  1  0  0  0  0
  2  3  1  0  0  0  0
  2 33  1  0  0  0  0
  2 34  1  0  0  0  0
  3  4  1  0  0  0  0
  3  5  1  0  0  0  0
  3  6  1  0  0  0  0
  5 35  1  0  0  0  0
  5 36  1  0  0  0  0
  5 37  1  0  0  0  0
  6 11  2  0  0  0  0
  6  7  1  0  0  0  0
  7  8  2  0  0  0  0
  7 38  1  0  0  0  0
  8  9  1  0  0  0  0
  8 20  1  0  0  0  0
  9 10  2  0  0  0  0
  9 39  1  0  0  0  0
 10 11  1  0  0  0  0
 10 15  1  0  0  0  0
 11 12  1  0  0  0  0
 12 13  1  0  0  0  0
 13 14  1  0  0  0  0
 13 40  1  0  0  0  0
 13 41  1  0  0  0  0
 14 42  1  0  0  0  0
 14 43  1  0  0  0  0
 14 44  1  0  0  0  0
 15 16  1  0  0  0  0
 15 17  1  0  0  0  0
 15 18  1  0  0  0  0
 17 45  1  0  0  0  0
 17 46  1  0  0  0  0
 17 47  1  0  0  0  0
 18 19  1  0  0  0  0
 18 48  1  0  0  0  0
 18 49  1  0  0  0  0
 19 50  1  0  0  0  0
 19 51  1  0  0  0  0
 19 52  1  0  0  0  0
 20 24  1  0  0  0  0
 20 21  2  0  0  0  0
 21 22  1  0  0  0  0
 21 53  1  0  0  0  0
 22 23  1  0  0  0  0
 23 27  2  0  0  0  0
 23 24  1  0  0  0  0
 24 25  1  0  0  0  0
 25 26  2  0  0  0  0
 25 54  1  0  0  0  0
 26 27  1  0  0  0  0
 26 28  1  0  0  0  0
 28 29  2  0  0  0  0
 28 55  1  0  0  0  0
M  CHG  1  55  -1
M  END
$$$$
ZINC03868952
  -OEChem-08230709463D

 56 58  0     1  0  0  0  0  0999 V2000
   -0.1315   -1.2877   -4.7608 C   0  0  0  0  0  0  0  0  0  0  0  0
   -1.3747   -1.9443   -4.1574 C   0  0  0  0  0  0  0  0  0  0  0  0
   -1.3648   -1.7562   -2.6390 C   0  0  1  0  0  0  0  0  0  0  0  0
   -1.2766   -0.6953   -2.4049 H   0  0  0  0  0  0  0  0  0  0  0  0
   -2.6665   -2.3023   -2.0489 C   0  0  0  0  0  0  0  0  0  0  0  0
   -0.1946   -2.4999   -2.0484 C   0  0  0  0  0  0  0  0  0  0  0  0
   -0.0907   -3.8649   -2.2159 C   0  0  0  0  0  0  0  0  0  0  0  0
    0.9930   -4.5527   -1.6682 C   0  0  0  0  0  0  0  0  0  0  0  0
    1.9678   -3.8554   -0.9526 C   0  0  0  0  0  0  0  0  0  0  0  0
    1.8593   -2.4901   -0.7941 C   0  0  0  0  0  0  0  0  0  0  0  0
    0.7768   -1.8102   -1.3361 C   0  0  0  0  0  0  0  0  0  0  0  0
    0.6710   -0.4649   -1.1737 O   0  0  0  0  0  0  0  0  0  0  0  0
   -0.0383   -0.0044   -0.0218 C   0  0  0  0  0  0  0  0  0  0  0  0
   -0.0526    1.5255   -0.0096 C   0  0  0  0  0  0  0  0  0  0  0  0
    2.9141   -1.7354   -0.0267 C   0  0  1  0  0  0  0  0  0  0  0  0
    2.6582   -0.6762   -0.0030 H   0  0  0  0  0  0  0  0  0  0  0  0
    2.9878   -2.2743    1.4034 C   0  0  0  0  0  0  0  0  0  0  0  0
    4.2706   -1.9173   -0.7107 C   0  0  0  0  0  0  0  0  0  0  0  0
    5.3173   -1.0523   -0.0056 C   0  0  0  0  0  0  0  0  0  0  0  0
    1.1086   -6.0164   -1.8458 C   0  0  0  0  0  0  0  0  0  0  0  0
    0.4793   -6.6186   -2.8722 C   0  0  0  0  0  0  0  0  0  0  0  0
    0.9337   -8.3289   -2.6347 S   0  0  0  0  0  0  0  0  0  0  0  0
    1.9247   -8.1146   -1.1743 C   0  0  0  0  0  0  0  0  0  0  0  0
    1.8591   -6.7620   -0.9522 N   0  0  0  0  0  0  0  0  0  0  0  0
    2.6188   -6.5404    0.1807 C   0  0  0  0  0  0  0  0  0  0  0  0
    3.1055   -7.7425    0.5940 C   0  0  0  0  0  0  0  0  0  0  0  0
    3.9660   -7.9732    1.7654 C   0  0  0  0  0  0  0  0  0  0  0  0
    4.3044   -7.0382    2.4646 O   0  0  0  0  0  0  0  0  0  0  0  0
   -0.1330   -0.2232   -4.5265 H   0  0  0  0  0  0  0  0  0  0  0  0
    0.7627   -1.7504   -4.3432 H   0  0  0  0  0  0  0  0  0  0  0  0
   -0.1386   -1.4217   -5.8425 H   0  0  0  0  0  0  0  0  0  0  0  0
   -1.3733   -3.0089   -4.3916 H   0  0  0  0  0  0  0  0  0  0  0  0
   -2.2690   -1.4816   -4.5749 H   0  0  0  0  0  0  0  0  0  0  0  0
   -2.6594   -2.1683   -0.9672 H   0  0  0  0  0  0  0  0  0  0  0  0
   -3.5128   -1.7644   -2.4761 H   0  0  0  0  0  0  0  0  0  0  0  0
   -2.7546   -3.3632   -2.2830 H   0  0  0  0  0  0  0  0  0  0  0  0
   -0.8468   -4.4008   -2.7705 H   0  0  0  0  0  0  0  0  0  0  0  0
    2.8080   -4.3841   -0.5272 H   0  0  0  0  0  0  0  0  0  0  0  0
    0.4548   -0.3703    0.8789 H   0  0  0  0  0  0  0  0  0  0  0  0
   -1.0621   -0.3771   -0.0524 H   0  0  0  0  0  0  0  0  0  0  0  0
    0.9712    1.8982    0.0211 H   0  0  0  0  0  0  0  0  0  0  0  0
   -0.5457    1.8914   -0.9102 H   0  0  0  0  0  0  0  0  0  0  0  0
   -0.5936    1.8768    0.8691 H   0  0  0  0  0  0  0  0  0  0  0  0
    3.7507   -1.7285    1.9585 H   0  0  0  0  0  0  0  0  0  0  0  0
    2.0214   -2.1448    1.8907 H   0  0  0  0  0  0  0  0  0  0  0  0
    3.2437   -3.3336    1.3798 H   0  0  0  0  0  0  0  0  0  0  0  0
    4.5678   -2.9645   -0.6557 H   0  0  0  0  0  0  0  0  0  0  0  0
    4.1940   -1.6157   -1.7554 H   0  0  0  0  0  0  0  0  0  0  0  0
    5.0201   -0.0051   -0.0607 H   0  0  0  0  0  0  0  0  0  0  0  0
    5.3939   -1.3538    1.0390 H   0  0  0  0  0  0  0  0  0  0  0  0
    6.2837   -1.1819   -0.4930 H   0  0  0  0  0  0  0  0  0  0  0  0
   -0.1391   -6.1802   -3.6415 H   0  0  0  0  0  0  0  0  0  0  0  0
    2.7945   -5.5853    0.6533 H   0  0  0  0  0  0  0  0  0  0  0  0
    4.3789   -9.2214    2.0631 O   0  5  0  0  0  0  0  0  0  0  0  0
    2.6545   -8.6859   -0.2681 N   0  3  0  0  0  0  0  0  0  0  0  0
    2.8581   -9.6907   -0.2125 H   0  0  0  0  0  0  0  0  0  0  0  0
  1  2  1  0  0  0  0
  1 29  1  0  0  0  0
  1 30  1  0  0  0  0
  1 31  1  0  0  0  0
  2  3  1  0  0  0  0
  2 32  1  0  0  0  0
  2 33  1  0  0  0  0
  3  4  1  0  0  0  0
  3  5  1  0  0  0  0
  3  6  1  0  0  0  0
  5 34  1  0  0  0  0
  5 35  1  0  0  0  0
  5 36  1  0  0  0  0
  6 11  2  0  0  0  0
  6  7  1  0  0  0  0
  7  8  2  0  0  0  0
  7 37  1  0  0  0  0
  8  9  1  0  0  0  0
  8 20  1  0  0  0  0
  9 10  2  0  0  0  0
  9 38  1  0  0  0  0
 10 11  1  0  0  0  0
 10 15  1  0  0  0  0
 11 12  1  0  0  0  0
 12 13  1  0  0  0  0
 13 14  1  0  0  0  0
 13 39  1  0  0  0  0
 13 40  1  0  0  0  0
 14 41  1  0  0  0  0
 14 42  1  0  0  0  0
 14 43  1  0  0  0  0
 15 16  1  0  0  0  0
 15 17  1  0  0  0  0
 15 18  1  0  0  0  0
 17 44  1  0  0  0  0
 17 45  1  0  0  0  0
 17 46  1  0  0  0  0
 18 19  1  0  0  0  0
 18 47  1  0  0  0  0
 18 48  1  0  0  0  0
 19 49  1  0  0  0  0
 19 50  1  0  0  0  0
 19 51  1  0  0  0  0
 20 24  1  0  0  0  0
 20 21  2  0  0  0  0
 21 22  1  0  0  0  0
 21 52  1  0  0  0  0
 22 23  1  0  0  0  0
 23 24  1  0  0  0  0
 23 55  2  0  0  0  0
 24 25  1  0  0  0  0
 25 26  2  0  0  0  0
 25 53  1  0  0  0  0
 26 27  1  0  0  0  0
 26 55  1  0  0  0  0
 27 28  2  0  0  0  0
 27 54  1  0  0  0  0
 55 56  1  0  0  0  0
M  CHG  2  54  -1  55   1
M  END
$$$$
ZINC03868953
  -OEChem-08230709463D

 55 57  0     1  0  0  0  0  0999 V2000
    0.1939    2.8064    4.6296 C   0  0  0  0  0  0  0  0  0  0  0  0
    0.9527    3.1926    3.3584 C   0  0  0  0  0  0  0  0  0  0  0  0
    1.1896    1.9439    2.5066 C   0  0  2  0  0  0  0  0  0  0  0  0
    0.2372    1.4511    2.3115 H   0  0  0  0  0  0  0  0  0  0  0  0
    2.1164    0.9840    3.2555 C   0  0  0  0  0  0  0  0  0  0  0  0
    1.8270    2.3406    1.1999 C   0  0  0  0  0  0  0  0  0  0  0  0
    3.0494    2.9788    1.1958 C   0  0  0  0  0  0  0  0  0  0  0  0
    3.6365    3.3501   -0.0147 C   0  0  0  0  0  0  0  0  0  0  0  0
    2.9856    3.0692   -1.2169 C   0  0  0  0  0  0  0  0  0  0  0  0
    1.7657    2.4264   -1.2044 C   0  0  0  0  0  0  0  0  0  0  0  0
    1.1852    2.0583    0.0017 C   0  0  0  0  0  0  0  0  0  0  0  0
   -0.0173    1.4248    0.0098 O   0  0  0  0  0  0  0  0  0  0  0  0
    0.0012   -0.0031   -0.0447 C   0  0  0  0  0  0  0  0  0  0  0  0
   -1.4340   -0.5328   -0.0265 C   0  0  0  0  0  0  0  0  0  0  0  0
    1.0619    2.1225   -2.5019 C   0  0  1  0  0  0  0  0  0  0  0  0
    0.1197    1.6154   -2.2941 H   0  0  0  0  0  0  0  0  0  0  0  0
    0.7842    3.4283   -3.2494 C   0  0  0  0  0  0  0  0  0  0  0  0
    1.9476    1.2202   -3.3634 C   0  0  0  0  0  0  0  0  0  0  0  0
    2.1229   -0.1331   -2.6714 C   0  0  0  0  0  0  0  0  0  0  0  0
    4.9453    4.0390   -0.0235 C   0  0  0  0  0  0  0  0  0  0  0  0
    5.2985    4.7929   -1.0813 C   0  0  0  0  0  0  0  0  0  0  0  0
    6.9140    5.3793   -0.5968 S   0  0  0  0  0  0  0  0  0  0  0  0
    7.0022    4.5661    0.9817 C   0  0  0  0  0  0  0  0  0  0  0  0
    5.8040    3.9010    1.0540 N   0  0  0  0  0  0  0  0  0  0  0  0
    5.8217    3.2475    2.2715 C   0  0  0  0  0  0  0  0  0  0  0  0
    7.0057    3.5354    2.8784 C   0  0  0  0  0  0  0  0  0  0  0  0
    7.7083    4.3526    2.0514 N   0  0  0  0  0  0  0  0  0  0  0  0
    7.4458    3.0487    4.1957 C   0  0  0  0  0  0  0  0  0  0  0  0
    6.7239    2.3183    4.8460 O   0  0  0  0  0  0  0  0  0  0  0  0
    0.0251    3.6960    5.2364 H   0  0  0  0  0  0  0  0  0  0  0  0
   -0.7648    2.3632    4.3600 H   0  0  0  0  0  0  0  0  0  0  0  0
    0.7807    2.0848    5.1980 H   0  0  0  0  0  0  0  0  0  0  0  0
    1.9114    3.6357    3.6280 H   0  0  0  0  0  0  0  0  0  0  0  0
    0.3659    3.9141    2.7900 H   0  0  0  0  0  0  0  0  0  0  0  0
    2.2852    0.0944    2.6487 H   0  0  0  0  0  0  0  0  0  0  0  0
    3.0689    1.4768    3.4506 H   0  0  0  0  0  0  0  0  0  0  0  0
    1.6554    0.6971    4.2006 H   0  0  0  0  0  0  0  0  0  0  0  0
    3.5498    3.1947    2.1282 H   0  0  0  0  0  0  0  0  0  0  0  0
    3.4368    3.3546   -2.1557 H   0  0  0  0  0  0  0  0  0  0  0  0
    0.4959   -0.3253   -0.9610 H   0  0  0  0  0  0  0  0  0  0  0  0
    0.5432   -0.3925    0.8171 H   0  0  0  0  0  0  0  0  0  0  0  0
   -1.4199   -1.6219   -0.0680 H   0  0  0  0  0  0  0  0  0  0  0  0
   -1.9287   -0.2106    0.8898 H   0  0  0  0  0  0  0  0  0  0  0  0
   -1.9760   -0.1433   -0.8883 H   0  0  0  0  0  0  0  0  0  0  0  0
    1.7264    3.9355   -3.4572 H   0  0  0  0  0  0  0  0  0  0  0  0
    0.2752    3.2086   -4.1878 H   0  0  0  0  0  0  0  0  0  0  0  0
    0.1532    4.0712   -2.6357 H   0  0  0  0  0  0  0  0  0  0  0  0
    1.4788    1.0728   -4.3363 H   0  0  0  0  0  0  0  0  0  0  0  0
    2.9226    1.6888   -3.4971 H   0  0  0  0  0  0  0  0  0  0  0  0
    2.7539   -0.7760   -3.2852 H   0  0  0  0  0  0  0  0  0  0  0  0
    2.5917    0.0143   -1.6985 H   0  0  0  0  0  0  0  0  0  0  0  0
    1.1479   -0.6018   -2.5377 H   0  0  0  0  0  0  0  0  0  0  0  0
    4.7468    4.9926   -1.9880 H   0  0  0  0  0  0  0  0  0  0  0  0
    5.0372    2.6212    2.6700 H   0  0  0  0  0  0  0  0  0  0  0  0
    8.6494    3.4130    4.6812 O   0  5  0  0  0  0  0  0  0  0  0  0
  1  2  1  0  0  0  0
  1 30  1  0  0  0  0
  1 31  1  0  0  0  0
  1 32  1  0  0  0  0
  2  3  1  0  0  0  0
  2 33  1  0  0  0  0
  2 34  1  0  0  0  0
  3  4  1  0  0  0  0
  3  5  1  0  0  0  0
  3  6  1  0  0  0  0
  5 35  1  0  0  0  0
  5 36  1  0  0  0  0
  5 37  1  0  0  0  0
  6 11  2  0  0  0  0
  6  7  1  0  0  0  0
  7  8  2  0  0  0  0
  7 38  1  0  0  0  0
  8  9  1  0  0  0  0
  8 20  1  0  0  0  0
  9 10  2  0  0  0  0
  9 39  1  0  0  0  0
 10 11  1  0  0  0  0
 10 15  1  0  0  0  0
 11 12  1  0  0  0  0
 12 13  1  0  0  0  0
 13 14  1  0  0  0  0
 13 40  1  0  0  0  0
 13 41  1  0  0  0  0
 14 42  1  0  0  0  0
 14 43  1  0  0  0  0
 14 44  1  0  0  0  0
 15 16  1  0  0  0  0
 15 17  1  0  0  0  0
 15 18  1  0  0  0  0
 17 45  1  0  0  0  0
 17 46  1  0  0  0  0
 17 47  1  0  0  0  0
 18 19  1  0  0  0  0
 18 48  1  0  0  0  0
 18 49  1  0  0  0  0
 19 50  1  0  0  0  0
 19 51  1  0  0  0  0
 19 52  1  0  0  0  0
 20 24  1  0  0  0  0
 20 21  2  0  0  0  0
 21 22  1  0  0  0  0
 21 53  1  0  0  0  0
 22 23  1  0  0  0  0
 23 27  2  0  0  0  0
 23 24  1  0  0  0  0
 24 25  1  0  0  0  0
 25 26  2  0  0  0  0
 25 54  1  0  0  0  0
 26 27  1  0  0  0  0
 26 28  1  0  0  0  0
 28 29  2  0  0  0  0
 28 55  1  0  0  0  0
M  CHG  1  55  -1
M  END
$$$$
ZINC03868953
  -OEChem-08230709463D

 56 58  0     1  0  0  0  0  0999 V2000
    0.1939    2.8064    4.6296 C   0  0  0  0  0  0  0  0  0  0  0  0
    0.9527    3.1926    3.3584 C   0  0  0  0  0  0  0  0  0  0  0  0
    1.1896    1.9439    2.5066 C   0  0  2  0  0  0  0  0  0  0  0  0
    0.2372    1.4511    2.3115 H   0  0  0  0  0  0  0  0  0  0  0  0
    2.1164    0.9840    3.2555 C   0  0  0  0  0  0  0  0  0  0  0  0
    1.8270    2.3406    1.1999 C   0  0  0  0  0  0  0  0  0  0  0  0
    3.0494    2.9788    1.1958 C   0  0  0  0  0  0  0  0  0  0  0  0
    3.6365    3.3501   -0.0147 C   0  0  0  0  0  0  0  0  0  0  0  0
    2.9856    3.0692   -1.2169 C   0  0  0  0  0  0  0  0  0  0  0  0
    1.7657    2.4264   -1.2044 C   0  0  0  0  0  0  0  0  0  0  0  0
    1.1852    2.0583    0.0017 C   0  0  0  0  0  0  0  0  0  0  0  0
   -0.0173    1.4248    0.0098 O   0  0  0  0  0  0  0  0  0  0  0  0
    0.0012   -0.0031   -0.0447 C   0  0  0  0  0  0  0  0  0  0  0  0
   -1.4340   -0.5328   -0.0265 C   0  0  0  0  0  0  0  0  0  0  0  0
    1.0619    2.1225   -2.5019 C   0  0  1  0  0  0  0  0  0  0  0  0
    0.1197    1.6154   -2.2941 H   0  0  0  0  0  0  0  0  0  0  0  0
    0.7842    3.4283   -3.2494 C   0  0  0  0  0  0  0  0  0  0  0  0
    1.9476    1.2202   -3.3634 C   0  0  0  0  0  0  0  0  0  0  0  0
    2.1229   -0.1331   -2.6714 C   0  0  0  0  0  0  0  0  0  0  0  0
    4.9453    4.0390   -0.0235 C   0  0  0  0  0  0  0  0  0  0  0  0
    5.2985    4.7929   -1.0813 C   0  0  0  0  0  0  0  0  0  0  0  0
    6.9140    5.3793   -0.5968 S   0  0  0  0  0  0  0  0  0  0  0  0
    7.0022    4.5661    0.9817 C   0  0  0  0  0  0  0  0  0  0  0  0
    5.8040    3.9010    1.0540 N   0  0  0  0  0  0  0  0  0  0  0  0
    5.8217    3.2475    2.2715 C   0  0  0  0  0  0  0  0  0  0  0  0
    7.0057    3.5354    2.8784 C   0  0  0  0  0  0  0  0  0  0  0  0
    7.4458    3.0487    4.1957 C   0  0  0  0  0  0  0  0  0  0  0  0
    6.7239    2.3183    4.8460 O   0  0  0  0  0  0  0  0  0  0  0  0
    0.0251    3.6960    5.2364 H   0  0  0  0  0  0  0  0  0  0  0  0
   -0.7648    2.3632    4.3600 H   0  0  0  0  0  0  0  0  0  0  0  0
    0.7807    2.0848    5.1980 H   0  0  0  0  0  0  0  0  0  0  0  0
    1.9114    3.6357    3.6280 H   0  0  0  0  0  0  0  0  0  0  0  0
    0.3659    3.9141    2.7900 H   0  0  0  0  0  0  0  0  0  0  0  0
    2.2852    0.0944    2.6487 H   0  0  0  0  0  0  0  0  0  0  0  0
    3.0689    1.4768    3.4506 H   0  0  0  0  0  0  0  0  0  0  0  0
    1.6554    0.6971    4.2006 H   0  0  0  0  0  0  0  0  0  0  0  0
    3.5498    3.1947    2.1282 H   0  0  0  0  0  0  0  0  0  0  0  0
    3.4368    3.3546   -2.1557 H   0  0  0  0  0  0  0  0  0  0  0  0
    0.4959   -0.3253   -0.9610 H   0  0  0  0  0  0  0  0  0  0  0  0
    0.5432   -0.3925    0.8171 H   0  0  0  0  0  0  0  0  0  0  0  0
   -1.4199   -1.6219   -0.0680 H   0  0  0  0  0  0  0  0  0  0  0  0
   -1.9287   -0.2106    0.8898 H   0  0  0  0  0  0  0  0  0  0  0  0
   -1.9760   -0.1433   -0.8883 H   0  0  0  0  0  0  0  0  0  0  0  0
    1.7264    3.9355   -3.4572 H   0  0  0  0  0  0  0  0  0  0  0  0
    0.2752    3.2086   -4.1878 H   0  0  0  0  0  0  0  0  0  0  0  0
    0.1532    4.0712   -2.6357 H   0  0  0  0  0  0  0  0  0  0  0  0
    1.4788    1.0728   -4.3363 H   0  0  0  0  0  0  0  0  0  0  0  0
    2.9226    1.6888   -3.4971 H   0  0  0  0  0  0  0  0  0  0  0  0
    2.7539   -0.7760   -3.2852 H   0  0  0  0  0  0  0  0  0  0  0  0
    2.5917    0.0143   -1.6985 H   0  0  0  0  0  0  0  0  0  0  0  0
    1.1479   -0.6018   -2.5377 H   0  0  0  0  0  0  0  0  0  0  0  0
    4.7468    4.9926   -1.9880 H   0  0  0  0  0  0  0  0  0  0  0  0
    5.0372    2.6212    2.6700 H   0  0  0  0  0  0  0  0  0  0  0  0
    8.6494    3.4130    4.6812 O   0  5  0  0  0  0  0  0  0  0  0  0
    7.7033    4.3505    2.0504 N   0  3  0  0  0  0  0  0  0  0  0  0
    8.6364    4.7352    2.2392 H   0  0  0  0  0  0  0  0  0  0  0  0
  1  2  1  0  0  0  0
  1 29  1  0  0  0  0
  1 30  1  0  0  0  0
  1 31  1  0  0  0  0
  2  3  1  0  0  0  0
  2 32  1  0  0  0  0
  2 33  1  0  0  0  0
  3  4  1  0  0  0  0
  3  5  1  0  0  0  0
  3  6  1  0  0  0  0
  5 34  1  0  0  0  0
  5 35  1  0  0  0  0
  5 36  1  0  0  0  0
  6 11  2  0  0  0  0
  6  7  1  0  0  0  0
  7  8  2  0  0  0  0
  7 37  1  0  0  0  0
  8  9  1  0  0  0  0
  8 20  1  0  0  0  0
  9 10  2  0  0  0  0
  9 38  1  0  0  0  0
 10 11  1  0  0  0  0
 10 15  1  0  0  0  0
 11 12  1  0  0  0  0
 12 13  1  0  0  0  0
 13 14  1  0  0  0  0
 13 39  1  0  0  0  0
 13 40  1  0  0  0  0
 14 41  1  0  0  0  0
 14 42  1  0  0  0  0
 14 43  1  0  0  0  0
 15 16  1  0  0  0  0
 15 17  1  0  0  0  0
 15 18  1  0  0  0  0
 17 44  1  0  0  0  0
 17 45  1  0  0  0  0
 17 46  1  0  0  0  0
 18 19  1  0  0  0  0
 18 47  1  0  0  0  0
 18 48  1  0  0  0  0
 19 49  1  0  0  0  0
 19 50  1  0  0  0  0
 19 51  1  0  0  0  0
 20 24  1  0  0  0  0
 20 21  2  0  0  0  0
 21 22  1  0  0  0  0
 21 52  1  0  0  0  0
 22 23  1  0  0  0  0
 23 24  1  0  0  0  0
 23 55  2  0  0  0  0
 24 25  1  0  0  0  0
 25 26  2  0  0  0  0
 25 53  1  0  0  0  0
 26 27  1  0  0  0  0
 26 55  1  0  0  0  0
 27 28  2  0  0  0  0
 27 54  1  0  0  0  0
 55 56  1  0  0  0  0
M  CHG  2  54  -1  55   1
M  END
$$$$
ZINC03868954
  -OEChem-08230709463D

 55 57  0     1  0  0  0  0  0999 V2000
    0.6839   -2.1677    1.2626 C   0  0  0  0  0  0  0  0  0  0  0  0
    0.7802   -0.6408    1.2608 C   0  0  0  0  0  0  0  0  0  0  0  0
    0.0316   -0.0840    0.0482 C   0  0  1  0  0  0  0  0  0  0  0  0
   -0.9934   -0.4548    0.0522 H   0  0  0  0  0  0  0  0  0  0  0  0
    0.0212    1.4446    0.1130 C   0  0  0  0  0  0  0  0  0  0  0  0
    0.7216   -0.5284   -1.2157 C   0  0  0  0  0  0  0  0  0  0  0  0
    2.0333   -0.1710   -1.4463 C   0  0  0  0  0  0  0  0  0  0  0  0
    2.6729   -0.5872   -2.6149 C   0  0  0  0  0  0  0  0  0  0  0  0
    1.9782   -1.3551   -3.5506 C   0  0  0  0  0  0  0  0  0  0  0  0
    0.6651   -1.7039   -3.3150 C   0  0  0  0  0  0  0  0  0  0  0  0
    0.0341   -1.2923   -2.1490 C   0  0  0  0  0  0  0  0  0  0  0  0
   -1.2605   -1.6379   -1.9206 O   0  0  0  0  0  0  0  0  0  0  0  0
   -2.2652   -0.7400   -2.3965 C   0  0  0  0  0  0  0  0  0  0  0  0
   -3.6490   -1.2929   -2.0496 C   0  0  0  0  0  0  0  0  0  0  0  0
   -0.0862   -2.5326   -4.3249 C   0  0  2  0  0  0  0  0  0  0  0  0
   -1.1017   -2.7064   -3.9690 H   0  0  0  0  0  0  0  0  0  0  0  0
    0.6247   -3.8742   -4.5139 C   0  0  0  0  0  0  0  0  0  0  0  0
   -0.1344   -1.7883   -5.6608 C   0  0  0  0  0  0  0  0  0  0  0  0
   -1.0018   -2.5703   -6.6493 C   0  0  0  0  0  0  0  0  0  0  0  0
    4.0813   -0.2103   -2.8638 C   0  0  0  0  0  0  0  0  0  0  0  0
    4.5563   -0.1878   -4.1232 C   0  0  0  0  0  0  0  0  0  0  0  0
    6.2506    0.3167   -3.8723 S   0  0  0  0  0  0  0  0  0  0  0  0
    6.2020    0.4521   -2.1002 C   0  0  0  0  0  0  0  0  0  0  0  0
    4.9069    0.1121   -1.7999 N   0  0  0  0  0  0  0  0  0  0  0  0
    4.8152    0.2021   -0.4239 C   0  0  0  0  0  0  0  0  0  0  0  0
    6.0332    0.5854    0.0477 C   0  0  0  0  0  0  0  0  0  0  0  0
    6.8641    0.7301   -1.0174 N   0  0  0  0  0  0  0  0  0  0  0  0
    6.3868    0.8044    1.4593 C   0  0  0  0  0  0  0  0  0  0  0  0
    5.5515    0.6423    2.3273 O   0  0  0  0  0  0  0  0  0  0  0  0
    1.1292   -2.5609    0.3487 H   0  0  0  0  0  0  0  0  0  0  0  0
    1.2172   -2.5644    2.1265 H   0  0  0  0  0  0  0  0  0  0  0  0
   -0.3633   -2.4657    1.3138 H   0  0  0  0  0  0  0  0  0  0  0  0
    1.8274   -0.3428    1.2095 H   0  0  0  0  0  0  0  0  0  0  0  0
    0.3349   -0.2476    2.1747 H   0  0  0  0  0  0  0  0  0  0  0  0
    1.0461    1.8155    0.1090 H   0  0  0  0  0  0  0  0  0  0  0  0
   -0.5122    1.8413   -0.7509 H   0  0  0  0  0  0  0  0  0  0  0  0
   -0.4779    1.7661    1.0272 H   0  0  0  0  0  0  0  0  0  0  0  0
    2.5663    0.4268   -0.7217 H   0  0  0  0  0  0  0  0  0  0  0  0
    2.4683   -1.6753   -4.4582 H   0  0  0  0  0  0  0  0  0  0  0  0
   -2.1346    0.2342   -1.9254 H   0  0  0  0  0  0  0  0  0  0  0  0
   -2.1764   -0.6355   -3.4779 H   0  0  0  0  0  0  0  0  0  0  0  0
   -3.7796   -2.2671   -2.5208 H   0  0  0  0  0  0  0  0  0  0  0  0
   -3.7379   -1.3975   -0.9683 H   0  0  0  0  0  0  0  0  0  0  0  0
   -4.4154   -0.6081   -2.4127 H   0  0  0  0  0  0  0  0  0  0  0  0
    0.0813   -4.4736   -5.2444 H   0  0  0  0  0  0  0  0  0  0  0  0
    1.6401   -3.7003   -4.8698 H   0  0  0  0  0  0  0  0  0  0  0  0
    0.6590   -4.4044   -3.5622 H   0  0  0  0  0  0  0  0  0  0  0  0
   -0.5605   -0.7966   -5.5091 H   0  0  0  0  0  0  0  0  0  0  0  0
    0.8754   -1.6927   -6.0601 H   0  0  0  0  0  0  0  0  0  0  0  0
   -0.5757   -3.5620   -6.8011 H   0  0  0  0  0  0  0  0  0  0  0  0
   -2.0115   -2.6659   -6.2500 H   0  0  0  0  0  0  0  0  0  0  0  0
   -1.0361   -2.0400   -7.6010 H   0  0  0  0  0  0  0  0  0  0  0  0
    4.0444   -0.4146   -5.0468 H   0  0  0  0  0  0  0  0  0  0  0  0
    3.9354    0.0040    0.1703 H   0  0  0  0  0  0  0  0  0  0  0  0
    7.6370    1.1849    1.7898 O   0  5  0  0  0  0  0  0  0  0  0  0
  1  2  1  0  0  0  0
  1 30  1  0  0  0  0
  1 31  1  0  0  0  0
  1 32  1  0  0  0  0
  2  3  1  0  0  0  0
  2 33  1  0  0  0  0
  2 34  1  0  0  0  0
  3  4  1  0  0  0  0
  3  5  1  0  0  0  0
  3  6  1  0  0  0  0
  5 35  1  0  0  0  0
  5 36  1  0  0  0  0
  5 37  1  0  0  0  0
  6 11  2  0  0  0  0
  6  7  1  0  0  0  0
  7  8  2  0  0  0  0
  7 38  1  0  0  0  0
  8  9  1  0  0  0  0
  8 20  1  0  0  0  0
  9 10  2  0  0  0  0
  9 39  1  0  0  0  0
 10 11  1  0  0  0  0
 10 15  1  0  0  0  0
 11 12  1  0  0  0  0
 12 13  1  0  0  0  0
 13 14  1  0  0  0  0
 13 40  1  0  0  0  0
 13 41  1  0  0  0  0
 14 42  1  0  0  0  0
 14 43  1  0  0  0  0
 14 44  1  0  0  0  0
 15 16  1  0  0  0  0
 15 17  1  0  0  0  0
 15 18  1  0  0  0  0
 17 45  1  0  0  0  0
 17 46  1  0  0  0  0
 17 47  1  0  0  0  0
 18 19  1  0  0  0  0
 18 48  1  0  0  0  0
 18 49  1  0  0  0  0
 19 50  1  0  0  0  0
 19 51  1  0  0  0  0
 19 52  1  0  0  0  0
 20 24  1  0  0  0  0
 20 21  2  0  0  0  0
 21 22  1  0  0  0  0
 21 53  1  0  0  0  0
 22 23  1  0  0  0  0
 23 27  2  0  0  0  0
 23 24  1  0  0  0  0
 24 25  1  0  0  0  0
 25 26  2  0  0  0  0
 25 54  1  0  0  0  0
 26 27  1  0  0  0  0
 26 28  1  0  0  0  0
 28 29  2  0  0  0  0
 28 55  1  0  0  0  0
M  CHG  1  55  -1
M  END
$$$$
ZINC03868954
  -OEChem-08230709463D

 56 58  0     1  0  0  0  0  0999 V2000
    0.6839   -2.1677    1.2626 C   0  0  0  0  0  0  0  0  0  0  0  0
    0.7802   -0.6408    1.2608 C   0  0  0  0  0  0  0  0  0  0  0  0
    0.0316   -0.0840    0.0482 C   0  0  1  0  0  0  0  0  0  0  0  0
   -0.9934   -0.4548    0.0522 H   0  0  0  0  0  0  0  0  0  0  0  0
    0.0212    1.4446    0.1130 C   0  0  0  0  0  0  0  0  0  0  0  0
    0.7216   -0.5284   -1.2157 C   0  0  0  0  0  0  0  0  0  0  0  0
    2.0333   -0.1710   -1.4463 C   0  0  0  0  0  0  0  0  0  0  0  0
    2.6729   -0.5872   -2.6149 C   0  0  0  0  0  0  0  0  0  0  0  0
    1.9782   -1.3551   -3.5506 C   0  0  0  0  0  0  0  0  0  0  0  0
    0.6651   -1.7039   -3.3150 C   0  0  0  0  0  0  0  0  0  0  0  0
    0.0341   -1.2923   -2.1490 C   0  0  0  0  0  0  0  0  0  0  0  0
   -1.2605   -1.6379   -1.9206 O   0  0  0  0  0  0  0  0  0  0  0  0
   -2.2652   -0.7400   -2.3965 C   0  0  0  0  0  0  0  0  0  0  0  0
   -3.6490   -1.2929   -2.0496 C   0  0  0  0  0  0  0  0  0  0  0  0
   -0.0862   -2.5326   -4.3249 C   0  0  2  0  0  0  0  0  0  0  0  0
   -1.1017   -2.7064   -3.9690 H   0  0  0  0  0  0  0  0  0  0  0  0
    0.6247   -3.8742   -4.5139 C   0  0  0  0  0  0  0  0  0  0  0  0
   -0.1344   -1.7883   -5.6608 C   0  0  0  0  0  0  0  0  0  0  0  0
   -1.0018   -2.5703   -6.6493 C   0  0  0  0  0  0  0  0  0  0  0  0
    4.0813   -0.2103   -2.8638 C   0  0  0  0  0  0  0  0  0  0  0  0
    4.5563   -0.1878   -4.1232 C   0  0  0  0  0  0  0  0  0  0  0  0
    6.2506    0.3167   -3.8723 S   0  0  0  0  0  0  0  0  0  0  0  0
    6.2020    0.4521   -2.1002 C   0  0  0  0  0  0  0  0  0  0  0  0
    4.9069    0.1121   -1.7999 N   0  0  0  0  0  0  0  0  0  0  0  0
    4.8152    0.2021   -0.4239 C   0  0  0  0  0  0  0  0  0  0  0  0
    6.0332    0.5854    0.0477 C   0  0  0  0  0  0  0  0  0  0  0  0
    6.3868    0.8044    1.4593 C   0  0  0  0  0  0  0  0  0  0  0  0
    5.5515    0.6423    2.3273 O   0  0  0  0  0  0  0  0  0  0  0  0
    1.1292   -2.5609    0.3487 H   0  0  0  0  0  0  0  0  0  0  0  0
    1.2172   -2.5644    2.1265 H   0  0  0  0  0  0  0  0  0  0  0  0
   -0.3633   -2.4657    1.3138 H   0  0  0  0  0  0  0  0  0  0  0  0
    1.8274   -0.3428    1.2095 H   0  0  0  0  0  0  0  0  0  0  0  0
    0.3349   -0.2476    2.1747 H   0  0  0  0  0  0  0  0  0  0  0  0
    1.0461    1.8155    0.1090 H   0  0  0  0  0  0  0  0  0  0  0  0
   -0.5122    1.8413   -0.7509 H   0  0  0  0  0  0  0  0  0  0  0  0
   -0.4779    1.7661    1.0272 H   0  0  0  0  0  0  0  0  0  0  0  0
    2.5663    0.4268   -0.7217 H   0  0  0  0  0  0  0  0  0  0  0  0
    2.4683   -1.6753   -4.4582 H   0  0  0  0  0  0  0  0  0  0  0  0
   -2.1346    0.2342   -1.9254 H   0  0  0  0  0  0  0  0  0  0  0  0
   -2.1764   -0.6355   -3.4779 H   0  0  0  0  0  0  0  0  0  0  0  0
   -3.7796   -2.2671   -2.5208 H   0  0  0  0  0  0  0  0  0  0  0  0
   -3.7379   -1.3975   -0.9683 H   0  0  0  0  0  0  0  0  0  0  0  0
   -4.4154   -0.6081   -2.4127 H   0  0  0  0  0  0  0  0  0  0  0  0
    0.0813   -4.4736   -5.2444 H   0  0  0  0  0  0  0  0  0  0  0  0
    1.6401   -3.7003   -4.8698 H   0  0  0  0  0  0  0  0  0  0  0  0
    0.6590   -4.4044   -3.5622 H   0  0  0  0  0  0  0  0  0  0  0  0
   -0.5605   -0.7966   -5.5091 H   0  0  0  0  0  0  0  0  0  0  0  0
    0.8754   -1.6927   -6.0601 H   0  0  0  0  0  0  0  0  0  0  0  0
   -0.5757   -3.5620   -6.8011 H   0  0  0  0  0  0  0  0  0  0  0  0
   -2.0115   -2.6659   -6.2500 H   0  0  0  0  0  0  0  0  0  0  0  0
   -1.0361   -2.0400   -7.6010 H   0  0  0  0  0  0  0  0  0  0  0  0
    4.0444   -0.4146   -5.0468 H   0  0  0  0  0  0  0  0  0  0  0  0
    3.9354    0.0040    0.1703 H   0  0  0  0  0  0  0  0  0  0  0  0
    7.6370    1.1849    1.7898 O   0  5  0  0  0  0  0  0  0  0  0  0
    6.8588    0.7286   -1.0176 N   0  3  0  0  0  0  0  0  0  0  0  0
    7.8451    1.0105   -0.9740 H   0  0  0  0  0  0  0  0  0  0  0  0
  1  2  1  0  0  0  0
  1 29  1  0  0  0  0
  1 30  1  0  0  0  0
  1 31  1  0  0  0  0
  2  3  1  0  0  0  0
  2 32  1  0  0  0  0
  2 33  1  0  0  0  0
  3  4  1  0  0  0  0
  3  5  1  0  0  0  0
  3  6  1  0  0  0  0
  5 34  1  0  0  0  0
  5 35  1  0  0  0  0
  5 36  1  0  0  0  0
  6 11  2  0  0  0  0
  6  7  1  0  0  0  0
  7  8  2  0  0  0  0
  7 37  1  0  0  0  0
  8  9  1  0  0  0  0
  8 20  1  0  0  0  0
  9 10  2  0  0  0  0
  9 38  1  0  0  0  0
 10 11  1  0  0  0  0
 10 15  1  0  0  0  0
 11 12  1  0  0  0  0
 12 13  1  0  0  0  0
 13 14  1  0  0  0  0
 13 39  1  0  0  0  0
 13 40  1  0  0  0  0
 14 41  1  0  0  0  0
 14 42  1  0  0  0  0
 14 43  1  0  0  0  0
 15 16  1  0  0  0  0
 15 17  1  0  0  0  0
 15 18  1  0  0  0  0
 17 44  1  0  0  0  0
 17 45  1  0  0  0  0
 17 46  1  0  0  0  0
 18 19  1  0  0  0  0
 18 47  1  0  0  0  0
 18 48  1  0  0  0  0
 19 49  1  0  0  0  0
 19 50  1  0  0  0  0
 19 51  1  0  0  0  0
 20 24  1  0  0  0  0
 20 21  2  0  0  0  0
 21 22  1  0  0  0  0
 21 52  1  0  0  0  0
 22 23  1  0  0  0  0
 23 24  1  0  0  0  0
 23 55  2  0  0  0  0
 24 25  1  0  0  0  0
 25 26  2  0  0  0  0
 25 53  1  0  0  0  0
 26 27  1  0  0  0  0
 26 55  1  0  0  0  0
 27 28  2  0  0  0  0
 27 54  1  0  0  0  0
 55 56  1  0  0  0  0
M  CHG  2  54  -1  55   1
M  END
$$$$
ZINC03868955
  -OEChem-08230709463D

 55 57  0     1  0  0  0  0  0999 V2000
    5.3170   -1.0521   -0.0058 C   0  0  0  0  0  0  0  0  0  0  0  0
    4.2702   -1.9171   -0.7108 C   0  0  0  0  0  0  0  0  0  0  0  0
    2.9138   -1.7352   -0.0268 C   0  0  2  0  0  0  0  0  0  0  0  0
    2.6578   -0.6760   -0.0032 H   0  0  0  0  0  0  0  0  0  0  0  0
    2.9874   -2.2741    1.4033 C   0  0  0  0  0  0  0  0  0  0  0  0
    1.8590   -2.4899   -0.7943 C   0  0  0  0  0  0  0  0  0  0  0  0
    1.9675   -3.8556   -0.9528 C   0  0  0  0  0  0  0  0  0  0  0  0
    0.9930   -4.5527   -1.6682 C   0  0  0  0  0  0  0  0  0  0  0  0
   -0.0910   -3.8647   -2.2161 C   0  0  0  0  0  0  0  0  0  0  0  0
   -0.1949   -2.5001   -2.0486 C   0  0  0  0  0  0  0  0  0  0  0  0
    0.7768   -1.8102   -1.3361 C   0  0  0  0  0  0  0  0  0  0  0  0
    0.6710   -0.4649   -1.1737 O   0  0  0  0  0  0  0  0  0  0  0  0
   -0.0383   -0.0044   -0.0218 C   0  0  0  0  0  0  0  0  0  0  0  0
   -0.0526    1.5255   -0.0096 C   0  0  0  0  0  0  0  0  0  0  0  0
   -1.3650   -1.7564   -2.6392 C   0  0  2  0  0  0  0  0  0  0  0  0
   -1.2769   -0.6955   -2.4051 H   0  0  0  0  0  0  0  0  0  0  0  0
   -2.6668   -2.3025   -2.0491 C   0  0  0  0  0  0  0  0  0  0  0  0
   -1.3750   -1.9445   -4.1576 C   0  0  0  0  0  0  0  0  0  0  0  0
   -0.1318   -1.2879   -4.7610 C   0  0  0  0  0  0  0  0  0  0  0  0
    1.1086   -6.0164   -1.8458 C   0  0  0  0  0  0  0  0  0  0  0  0
    0.4792   -6.6185   -2.8722 C   0  0  0  0  0  0  0  0  0  0  0  0
    0.9339   -8.3289   -2.6350 S   0  0  0  0  0  0  0  0  0  0  0  0
    1.9247   -8.1146   -1.1743 C   0  0  0  0  0  0  0  0  0  0  0  0
    1.8591   -6.7620   -0.9523 N   0  0  0  0  0  0  0  0  0  0  0  0
    2.6185   -6.5404    0.1808 C   0  0  0  0  0  0  0  0  0  0  0  0
    3.1056   -7.7426    0.5939 C   0  0  0  0  0  0  0  0  0  0  0  0
    2.6556   -8.6913   -0.2680 N   0  0  0  0  0  0  0  0  0  0  0  0
    3.9661   -7.9733    1.7653 C   0  0  0  0  0  0  0  0  0  0  0  0
    4.3045   -7.0383    2.4644 O   0  0  0  0  0  0  0  0  0  0  0  0
    5.0198   -0.0049   -0.0608 H   0  0  0  0  0  0  0  0  0  0  0  0
    5.3935   -1.3537    1.0389 H   0  0  0  0  0  0  0  0  0  0  0  0
    6.2833   -1.1817   -0.4931 H   0  0  0  0  0  0  0  0  0  0  0  0
    4.5674   -2.9643   -0.6558 H   0  0  0  0  0  0  0  0  0  0  0  0
    4.1937   -1.6155   -1.7555 H   0  0  0  0  0  0  0  0  0  0  0  0
    3.7503   -1.7283    1.9584 H   0  0  0  0  0  0  0  0  0  0  0  0
    2.0211   -2.1446    1.8906 H   0  0  0  0  0  0  0  0  0  0  0  0
    3.2433   -3.3334    1.3796 H   0  0  0  0  0  0  0  0  0  0  0  0
    2.8077   -4.3843   -0.5273 H   0  0  0  0  0  0  0  0  0  0  0  0
   -0.8471   -4.4006   -2.7707 H   0  0  0  0  0  0  0  0  0  0  0  0
    0.4548   -0.3703    0.8789 H   0  0  0  0  0  0  0  0  0  0  0  0
   -1.0621   -0.3771   -0.0524 H   0  0  0  0  0  0  0  0  0  0  0  0
    0.9712    1.8982    0.0211 H   0  0  0  0  0  0  0  0  0  0  0  0
   -0.5457    1.8914   -0.9102 H   0  0  0  0  0  0  0  0  0  0  0  0
   -0.5937    1.8768    0.8691 H   0  0  0  0  0  0  0  0  0  0  0  0
   -2.6597   -2.1685   -0.9674 H   0  0  0  0  0  0  0  0  0  0  0  0
   -3.5131   -1.7646   -2.4763 H   0  0  0  0  0  0  0  0  0  0  0  0
   -2.7549   -3.3634   -2.2833 H   0  0  0  0  0  0  0  0  0  0  0  0
   -1.3736   -3.0091   -4.3919 H   0  0  0  0  0  0  0  0  0  0  0  0
   -2.2692   -1.4818   -4.5752 H   0  0  0  0  0  0  0  0  0  0  0  0
   -0.1332   -0.2234   -4.5268 H   0  0  0  0  0  0  0  0  0  0  0  0
    0.7624   -1.7506   -4.3434 H   0  0  0  0  0  0  0  0  0  0  0  0
   -0.1389   -1.4219   -5.8427 H   0  0  0  0  0  0  0  0  0  0  0  0
   -0.1391   -6.1802   -3.6416 H   0  0  0  0  0  0  0  0  0  0  0  0
    2.7944   -5.5853    0.6533 H   0  0  0  0  0  0  0  0  0  0  0  0
    4.3789   -9.2214    2.0630 O   0  5  0  0  0  0  0  0  0  0  0  0
  1  2  1  0  0  0  0
  1 30  1  0  0  0  0
  1 31  1  0  0  0  0
  1 32  1  0  0  0  0
  2  3  1  0  0  0  0
  2 33  1  0  0  0  0
  2 34  1  0  0  0  0
  3  4  1  0  0  0  0
  3  5  1  0  0  0  0
  3  6  1  0  0  0  0
  5 35  1  0  0  0  0
  5 36  1  0  0  0  0
  5 37  1  0  0  0  0
  6 11  2  0  0  0  0
  6  7  1  0  0  0  0
  7  8  2  0  0  0  0
  7 38  1  0  0  0  0
  8  9  1  0  0  0  0
  8 20  1  0  0  0  0
  9 10  2  0  0  0  0
  9 39  1  0  0  0  0
 10 11  1  0  0  0  0
 10 15  1  0  0  0  0
 11 12  1  0  0  0  0
 12 13  1  0  0  0  0
 13 14  1  0  0  0  0
 13 40  1  0  0  0  0
 13 41  1  0  0  0  0
 14 42  1  0  0  0  0
 14 43  1  0  0  0  0
 14 44  1  0  0  0  0
 15 16  1  0  0  0  0
 15 17  1  0  0  0  0
 15 18  1  0  0  0  0
 17 45  1  0  0  0  0
 17 46  1  0  0  0  0
 17 47  1  0  0  0  0
 18 19  1  0  0  0  0
 18 48  1  0  0  0  0
 18 49  1  0  0  0  0
 19 50  1  0  0  0  0
 19 51  1  0  0  0  0
 19 52  1  0  0  0  0
 20 24  1  0  0  0  0
 20 21  2  0  0  0  0
 21 22  1  0  0  0  0
 21 53  1  0  0  0  0
 22 23  1  0  0  0  0
 23 27  2  0  0  0  0
 23 24  1  0  0  0  0
 24 25  1  0  0  0  0
 25 26  2  0  0  0  0
 25 54  1  0  0  0  0
 26 27  1  0  0  0  0
 26 28  1  0  0  0  0
 28 29  2  0  0  0  0
 28 55  1  0  0  0  0
M  CHG  1  55  -1
M  END
$$$$
ZINC03868955
  -OEChem-08230709463D

 56 58  0     1  0  0  0  0  0999 V2000
    5.3170   -1.0521   -0.0058 C   0  0  0  0  0  0  0  0  0  0  0  0
    4.2702   -1.9171   -0.7108 C   0  0  0  0  0  0  0  0  0  0  0  0
    2.9138   -1.7352   -0.0268 C   0  0  2  0  0  0  0  0  0  0  0  0
    2.6578   -0.6760   -0.0032 H   0  0  0  0  0  0  0  0  0  0  0  0
    2.9874   -2.2741    1.4033 C   0  0  0  0  0  0  0  0  0  0  0  0
    1.8590   -2.4899   -0.7943 C   0  0  0  0  0  0  0  0  0  0  0  0
    1.9675   -3.8556   -0.9528 C   0  0  0  0  0  0  0  0  0  0  0  0
    0.9930   -4.5527   -1.6682 C   0  0  0  0  0  0  0  0  0  0  0  0
   -0.0910   -3.8647   -2.2161 C   0  0  0  0  0  0  0  0  0  0  0  0
   -0.1949   -2.5001   -2.0486 C   0  0  0  0  0  0  0  0  0  0  0  0
    0.7768   -1.8102   -1.3361 C   0  0  0  0  0  0  0  0  0  0  0  0
    0.6710   -0.4649   -1.1737 O   0  0  0  0  0  0  0  0  0  0  0  0
   -0.0383   -0.0044   -0.0218 C   0  0  0  0  0  0  0  0  0  0  0  0
   -0.0526    1.5255   -0.0096 C   0  0  0  0  0  0  0  0  0  0  0  0
   -1.3650   -1.7564   -2.6392 C   0  0  2  0  0  0  0  0  0  0  0  0
   -1.2769   -0.6955   -2.4051 H   0  0  0  0  0  0  0  0  0  0  0  0
   -2.6668   -2.3025   -2.0491 C   0  0  0  0  0  0  0  0  0  0  0  0
   -1.3750   -1.9445   -4.1576 C   0  0  0  0  0  0  0  0  0  0  0  0
   -0.1318   -1.2879   -4.7610 C   0  0  0  0  0  0  0  0  0  0  0  0
    1.1086   -6.0164   -1.8458 C   0  0  0  0  0  0  0  0  0  0  0  0
    0.4792   -6.6185   -2.8722 C   0  0  0  0  0  0  0  0  0  0  0  0
    0.9339   -8.3289   -2.6350 S   0  0  0  0  0  0  0  0  0  0  0  0
    1.9247   -8.1146   -1.1743 C   0  0  0  0  0  0  0  0  0  0  0  0
    1.8591   -6.7620   -0.9523 N   0  0  0  0  0  0  0  0  0  0  0  0
    2.6185   -6.5404    0.1808 C   0  0  0  0  0  0  0  0  0  0  0  0
    3.1056   -7.7426    0.5939 C   0  0  0  0  0  0  0  0  0  0  0  0
    3.9661   -7.9733    1.7653 C   0  0  0  0  0  0  0  0  0  0  0  0
    4.3045   -7.0383    2.4644 O   0  0  0  0  0  0  0  0  0  0  0  0
    5.0198   -0.0049   -0.0608 H   0  0  0  0  0  0  0  0  0  0  0  0
    5.3935   -1.3537    1.0389 H   0  0  0  0  0  0  0  0  0  0  0  0
    6.2833   -1.1817   -0.4931 H   0  0  0  0  0  0  0  0  0  0  0  0
    4.5674   -2.9643   -0.6558 H   0  0  0  0  0  0  0  0  0  0  0  0
    4.1937   -1.6155   -1.7555 H   0  0  0  0  0  0  0  0  0  0  0  0
    3.7503   -1.7283    1.9584 H   0  0  0  0  0  0  0  0  0  0  0  0
    2.0211   -2.1446    1.8906 H   0  0  0  0  0  0  0  0  0  0  0  0
    3.2433   -3.3334    1.3796 H   0  0  0  0  0  0  0  0  0  0  0  0
    2.8077   -4.3843   -0.5273 H   0  0  0  0  0  0  0  0  0  0  0  0
   -0.8471   -4.4006   -2.7707 H   0  0  0  0  0  0  0  0  0  0  0  0
    0.4548   -0.3703    0.8789 H   0  0  0  0  0  0  0  0  0  0  0  0
   -1.0621   -0.3771   -0.0524 H   0  0  0  0  0  0  0  0  0  0  0  0
    0.9712    1.8982    0.0211 H   0  0  0  0  0  0  0  0  0  0  0  0
   -0.5457    1.8914   -0.9102 H   0  0  0  0  0  0  0  0  0  0  0  0
   -0.5937    1.8768    0.8691 H   0  0  0  0  0  0  0  0  0  0  0  0
   -2.6597   -2.1685   -0.9674 H   0  0  0  0  0  0  0  0  0  0  0  0
   -3.5131   -1.7646   -2.4763 H   0  0  0  0  0  0  0  0  0  0  0  0
   -2.7549   -3.3634   -2.2833 H   0  0  0  0  0  0  0  0  0  0  0  0
   -1.3736   -3.0091   -4.3919 H   0  0  0  0  0  0  0  0  0  0  0  0
   -2.2692   -1.4818   -4.5752 H   0  0  0  0  0  0  0  0  0  0  0  0
   -0.1332   -0.2234   -4.5268 H   0  0  0  0  0  0  0  0  0  0  0  0
    0.7624   -1.7506   -4.3434 H   0  0  0  0  0  0  0  0  0  0  0  0
   -0.1389   -1.4219   -5.8427 H   0  0  0  0  0  0  0  0  0  0  0  0
   -0.1391   -6.1802   -3.6416 H   0  0  0  0  0  0  0  0  0  0  0  0
    2.7944   -5.5853    0.6533 H   0  0  0  0  0  0  0  0  0  0  0  0
    4.3789   -9.2214    2.0630 O   0  5  0  0  0  0  0  0  0  0  0  0
    2.6545   -8.6859   -0.2682 N   0  3  0  0  0  0  0  0  0  0  0  0
    2.8581   -9.6908   -0.2127 H   0  0  0  0  0  0  0  0  0  0  0  0
  1  2  1  0  0  0  0
  1 29  1  0  0  0  0
  1 30  1  0  0  0  0
  1 31  1  0  0  0  0
  2  3  1  0  0  0  0
  2 32  1  0  0  0  0
  2 33  1  0  0  0  0
  3  4  1  0  0  0  0
  3  5  1  0  0  0  0
  3  6  1  0  0  0  0
  5 34  1  0  0  0  0
  5 35  1  0  0  0  0
  5 36  1  0  0  0  0
  6 11  2  0  0  0  0
  6  7  1  0  0  0  0
  7  8  2  0  0  0  0
  7 37  1  0  0  0  0
  8  9  1  0  0  0  0
  8 20  1  0  0  0  0
  9 10  2  0  0  0  0
  9 38  1  0  0  0  0
 10 11  1  0  0  0  0
 10 15  1  0  0  0  0
 11 12  1  0  0  0  0
 12 13  1  0  0  0  0
 13 14  1  0  0  0  0
 13 39  1  0  0  0  0
 13 40  1  0  0  0  0
 14 41  1  0  0  0  0
 14 42  1  0  0  0  0
 14 43  1  0  0  0  0
 15 16  1  0  0  0  0
 15 17  1  0  0  0  0
 15 18  1  0  0  0  0
 17 44  1  0  0  0  0
 17 45  1  0  0  0  0
 17 46  1  0  0  0  0
 18 19  1  0  0  0  0
 18 47  1  0  0  0  0
 18 48  1  0  0  0  0
 19 49  1  0  0  0  0
 19 50  1  0  0  0  0
 19 51  1  0  0  0  0
 20 24  1  0  0  0  0
 20 21  2  0  0  0  0
 21 22  1  0  0  0  0
 21 52  1  0  0  0  0
 22 23  1  0  0  0  0
 23 24  1  0  0  0  0
 23 55  2  0  0  0  0
 24 25  1  0  0  0  0
 25 26  2  0  0  0  0
 25 53  1  0  0  0  0
 26 27  1  0  0  0  0
 26 55  1  0  0  0  0
 27 28  2  0  0  0  0
 27 54  1  0  0  0  0
 55 56  1  0  0  0  0
M  CHG  2  54  -1  55   1
M  END
$$$$
ZINC03871916
  -OEChem-08230709463D

 54 57  0     0  0  0  0  0  0999 V2000
   -6.1428    7.5118    0.6860 C   0  0  0  0  0  0  0  0  0  0  0  0
   -5.2050    8.2130   -0.2988 C   0  0  0  0  0  0  0  0  0  0  0  0
   -5.1437    9.7015    0.0371 C   0  0  0  0  0  0  0  0  0  0  0  0
   -4.0439   10.3447   -0.8159 C   0  0  0  0  0  0  0  0  0  0  0  0
   -2.6909    9.8477   -0.3111 C   0  0  0  0  0  0  0  0  0  0  0  0
   -2.6789    8.3439   -0.2199 C   0  0  0  0  0  0  0  0  0  0  0  0
   -3.8350    7.5921   -0.2081 C   0  0  0  0  0  0  0  0  0  0  0  0
   -3.7604    6.2067   -0.1132 C   0  0  0  0  0  0  0  0  0  0  0  0
   -2.5421    5.5705   -0.0402 C   0  0  0  0  0  0  0  0  0  0  0  0
   -1.3673    6.3261   -0.0490 C   0  0  0  0  0  0  0  0  0  0  0  0
   -1.4466    7.7150   -0.1413 C   0  0  0  0  0  0  0  0  0  0  0  0
   -0.0518    5.6589    0.0327 C   0  0  0  0  0  0  0  0  0  0  0  0
    0.9027    6.1226   -0.5601 O   0  0  0  0  0  0  0  0  0  0  0  0
    0.1037    4.4279    0.8350 C   0  0  0  0  0  0  0  0  0  0  0  0
   -0.9569    3.9847    1.6460 C   0  0  0  0  0  0  0  0  0  0  0  0
   -0.8353    2.8605    2.3965 C   0  0  0  0  0  0  0  0  0  0  0  0
    0.3583    2.1143    2.3603 C   0  0  0  0  0  0  0  0  0  0  0  0
    0.5004    0.9461    3.1241 C   0  0  0  0  0  0  0  0  0  0  0  0
    1.6893    0.2368    3.0716 C   0  0  0  0  0  0  0  0  0  0  0  0
    2.7497    0.6793    2.2607 C   0  0  0  0  0  0  0  0  0  0  0  0
    2.6309    1.8074    1.5151 C   0  0  0  0  0  0  0  0  0  0  0  0
    1.4352    2.5502    1.5463 C   0  0  0  0  0  0  0  0  0  0  0  0
    1.2932    3.7184    0.7823 C   0  0  0  0  0  0  0  0  0  0  0  0
    1.8442   -0.9945    3.8735 C   0  0  0  0  0  0  0  0  0  0  0  0
    0.9312   -1.3811    4.5753 O   0  0  0  0  0  0  0  0  0  0  0  0
   -2.4209   10.4393    1.0739 C   0  0  0  0  0  0  0  0  0  0  0  0
   -1.5942   10.3034   -1.2758 C   0  0  0  0  0  0  0  0  0  0  0  0
   -5.7440    8.0383   -1.7200 C   0  0  0  0  0  0  0  0  0  0  0  0
   -7.1401    7.9450    0.6092 H   0  0  0  0  0  0  0  0  0  0  0  0
   -6.1892    6.4488    0.4495 H   0  0  0  0  0  0  0  0  0  0  0  0
   -5.7672    7.6422    1.7009 H   0  0  0  0  0  0  0  0  0  0  0  0
   -4.9109    9.8301    1.0941 H   0  0  0  0  0  0  0  0  0  0  0  0
   -6.1026   10.1688   -0.1871 H   0  0  0  0  0  0  0  0  0  0  0  0
   -4.0945   11.4295   -0.7231 H   0  0  0  0  0  0  0  0  0  0  0  0
   -4.1738   10.0591   -1.8597 H   0  0  0  0  0  0  0  0  0  0  0  0
   -4.6689    5.6228   -0.1015 H   0  0  0  0  0  0  0  0  0  0  0  0
   -2.4948    4.4937    0.0275 H   0  0  0  0  0  0  0  0  0  0  0  0
   -0.5418    8.3045   -0.1520 H   0  0  0  0  0  0  0  0  0  0  0  0
   -1.8775    4.5486    1.6754 H   0  0  0  0  0  0  0  0  0  0  0  0
   -1.6565    2.5351    3.0179 H   0  0  0  0  0  0  0  0  0  0  0  0
   -0.3112    0.6020    3.7481 H   0  0  0  0  0  0  0  0  0  0  0  0
    3.6700    0.1148    2.2311 H   0  0  0  0  0  0  0  0  0  0  0  0
    3.4538    2.1350    0.8970 H   0  0  0  0  0  0  0  0  0  0  0  0
    2.1045    4.0620    0.1577 H   0  0  0  0  0  0  0  0  0  0  0  0
   -1.4470   10.1026    1.4292 H   0  0  0  0  0  0  0  0  0  0  0  0
   -2.4288   11.5275    1.0120 H   0  0  0  0  0  0  0  0  0  0  0  0
   -3.1946   10.1092    1.7671 H   0  0  0  0  0  0  0  0  0  0  0  0
   -1.7771    9.8761   -2.2617 H   0  0  0  0  0  0  0  0  0  0  0  0
   -1.5997   11.3912   -1.3444 H   0  0  0  0  0  0  0  0  0  0  0  0
   -0.6245    9.9674   -0.9084 H   0  0  0  0  0  0  0  0  0  0  0  0
   -5.0836    8.5448   -2.4239 H   0  0  0  0  0  0  0  0  0  0  0  0
   -5.7892    6.9768   -1.9635 H   0  0  0  0  0  0  0  0  0  0  0  0
   -6.7432    8.4689   -1.7851 H   0  0  0  0  0  0  0  0  0  0  0  0
    2.9980   -1.6882    3.8265 O   0  5  0  0  0  0  0  0  0  0  0  0
  1  2  1  0  0  0  0
  1 29  1  0  0  0  0
  1 30  1  0  0  0  0
  1 31  1  0  0  0  0
  2  7  1  0  0  0  0
  2  3  1  0  0  0  0
  2 28  1  0  0  0  0
  3  4  1  0  0  0  0
  3 32  1  0  0  0  0
  3 33  1  0  0  0  0
  4  5  1  0  0  0  0
  4 34  1  0  0  0  0
  4 35  1  0  0  0  0
  5  6  1  0  0  0  0
  5 26  1  0  0  0  0
  5 27  1  0  0  0  0
  6 11  2  0  0  0  0
  6  7  1  0  0  0  0
  7  8  2  0  0  0  0
  8  9  1  0  0  0  0
  8 36  1  0  0  0  0
  9 10  2  0  0  0  0
  9 37  1  0  0  0  0
 10 11  1  0  0  0  0
 10 12  1  0  0  0  0
 11 38  1  0  0  0  0
 12 13  2  0  0  0  0
 12 14  1  0  0  0  0
 14 23  2  0  0  0  0
 14 15  1  0  0  0  0
 15 16  2  0  0  0  0
 15 39  1  0  0  0  0
 16 17  1  0  0  0  0
 16 40  1  0  0  0  0
 17 22  2  0  0  0  0
 17 18  1  0  0  0  0
 18 19  2  0  0  0  0
 18 41  1  0  0  0  0
 19 20  1  0  0  0  0
 19 24  1  0  0  0  0
 20 21  2  0  0  0  0
 20 42  1  0  0  0  0
 21 22  1  0  0  0  0
 21 43  1  0  0  0  0
 22 23  1  0  0  0  0
 23 44  1  0  0  0  0
 24 25  2  0  0  0  0
 24 54  1  0  0  0  0
 26 45  1  0  0  0  0
 26 46  1  0  0  0  0
 26 47  1  0  0  0  0
 27 48  1  0  0  0  0
 27 49  1  0  0  0  0
 27 50  1  0  0  0  0
 28 51  1  0  0  0  0
 28 52  1  0  0  0  0
 28 53  1  0  0  0  0
M  CHG  1  54  -1
M  END
$$$$
ZINC03873694
  -OEChem-08230709463D

 51 53  0     0  0  0  0  0  0999 V2000
    3.7283    4.0392    1.7335 C   0  0  0  0  0  0  0  0  0  0  0  0
    2.7935    2.8867    1.3609 C   0  0  0  0  0  0  0  0  0  0  0  0
    1.4405    3.3911    1.2079 O   0  0  0  0  0  0  0  0  0  0  0  0
    0.4880    2.4970    0.8781 C   0  0  0  0  0  0  0  0  0  0  0  0
    0.7799    1.3278    0.7226 O   0  0  0  0  0  0  0  0  0  0  0  0
   -0.9081    2.9385    0.6999 C   0  0  0  0  0  0  0  0  0  0  0  0
   -1.2469    4.2822    0.8839 C   0  0  0  0  0  0  0  0  0  0  0  0
   -2.5501    4.6915    0.7115 C   0  0  0  0  0  0  0  0  0  0  0  0
   -3.5309    3.7682    0.3649 C   0  0  0  0  0  0  0  0  0  0  0  0
   -3.1986    2.4293    0.1865 C   0  0  0  0  0  0  0  0  0  0  0  0
   -1.8966    2.0134    0.3521 C   0  0  0  0  0  0  0  0  0  0  0  0
   -4.8530    4.1864    0.1961 N   0  0  0  0  0  0  0  0  0  0  0  0
   -5.3145    4.9879   -0.8102 C   0  0  0  0  0  0  0  0  0  0  0  0
   -6.6413    5.1681   -0.6388 C   0  0  0  0  0  0  0  0  0  0  0  0
   -7.0236    4.4647    0.5165 C   0  0  0  0  0  0  0  0  0  0  0  0
   -5.9073    3.8659    1.0171 C   0  0  0  0  0  0  0  0  0  0  0  0
   -5.8415    3.0213    2.2286 C   0  0  0  0  0  0  0  0  0  0  0  0
   -7.0005    2.4273    2.7314 C   0  0  0  0  0  0  0  0  0  0  0  0
   -6.9340    1.6360    3.8584 C   0  0  0  0  0  0  0  0  0  0  0  0
   -5.7183    1.4382    4.4994 C   0  0  0  0  0  0  0  0  0  0  0  0
   -4.5643    2.0319    4.0058 C   0  0  0  0  0  0  0  0  0  0  0  0
   -4.6213    2.8203    2.8762 C   0  0  0  0  0  0  0  0  0  0  0  0
   -5.6578    0.6617    5.6130 O   0  0  0  0  0  0  0  0  0  0  0  0
   -6.8824    0.0815    6.0666 C   0  0  0  0  0  0  0  0  0  0  0  0
   -4.4832    5.5698   -1.9244 C   0  0  0  0  0  0  0  0  0  0  0  0
   -4.0396    6.9840   -1.5447 C   0  0  0  0  0  0  0  0  0  0  0  0
   -3.2083    7.5659   -2.6589 C   0  0  0  0  0  0  0  0  0  0  0  0
   -2.9928    6.9161   -3.6545 O   0  0  0  0  0  0  0  0  0  0  0  0
    3.7083    4.7924    0.9459 H   0  0  0  0  0  0  0  0  0  0  0  0
    3.3987    4.4856    2.6717 H   0  0  0  0  0  0  0  0  0  0  0  0
    4.7440    3.6605    1.8483 H   0  0  0  0  0  0  0  0  0  0  0  0
    2.8135    2.1335    2.1485 H   0  0  0  0  0  0  0  0  0  0  0  0
    3.1231    2.4403    0.4227 H   0  0  0  0  0  0  0  0  0  0  0  0
   -0.4866    4.9989    1.1573 H   0  0  0  0  0  0  0  0  0  0  0  0
   -2.8119    5.7301    0.8498 H   0  0  0  0  0  0  0  0  0  0  0  0
   -3.9628    1.7152   -0.0825 H   0  0  0  0  0  0  0  0  0  0  0  0
   -1.6394    0.9737    0.2137 H   0  0  0  0  0  0  0  0  0  0  0  0
   -7.2919    5.7517   -1.2733 H   0  0  0  0  0  0  0  0  0  0  0  0
   -8.0193    4.4094    0.9312 H   0  0  0  0  0  0  0  0  0  0  0  0
   -7.9472    2.5844    2.2360 H   0  0  0  0  0  0  0  0  0  0  0  0
   -7.8294    1.1728    4.2457 H   0  0  0  0  0  0  0  0  0  0  0  0
   -3.6207    1.8761    4.5076 H   0  0  0  0  0  0  0  0  0  0  0  0
   -3.7233    3.2820    2.4931 H   0  0  0  0  0  0  0  0  0  0  0  0
   -6.6938   -0.5124    6.9609 H   0  0  0  0  0  0  0  0  0  0  0  0
   -7.5950    0.8727    6.2995 H   0  0  0  0  0  0  0  0  0  0  0  0
   -7.2926   -0.5584    5.2853 H   0  0  0  0  0  0  0  0  0  0  0  0
   -3.6050    4.9449   -2.0869 H   0  0  0  0  0  0  0  0  0  0  0  0
   -5.0761    5.6080   -2.8382 H   0  0  0  0  0  0  0  0  0  0  0  0
   -4.9178    7.6089   -1.3822 H   0  0  0  0  0  0  0  0  0  0  0  0
   -3.4467    6.9458   -0.6309 H   0  0  0  0  0  0  0  0  0  0  0  0
   -2.7074    8.8060   -2.5453 O   0  5  0  0  0  0  0  0  0  0  0  0
  1  2  1  0  0  0  0
  1 29  1  0  0  0  0
  1 30  1  0  0  0  0
  1 31  1  0  0  0  0
  2  3  1  0  0  0  0
  2 32  1  0  0  0  0
  2 33  1  0  0  0  0
  3  4  1  0  0  0  0
  4  5  2  0  0  0  0
  4  6  1  0  0  0  0
  6 11  2  0  0  0  0
  6  7  1  0  0  0  0
  7  8  2  0  0  0  0
  7 34  1  0  0  0  0
  8  9  1  0  0  0  0
  8 35  1  0  0  0  0
  9 10  2  0  0  0  0
  9 12  1  0  0  0  0
 10 11  1  0  0  0  0
 10 36  1  0  0  0  0
 11 37  1  0  0  0  0
 12 16  1  0  0  0  0
 12 13  1  0  0  0  0
 13 14  2  0  0  0  0
 13 25  1  0  0  0  0
 14 15  1  0  0  0  0
 14 38  1  0  0  0  0
 15 16  2  0  0  0  0
 15 39  1  0  0  0  0
 16 17  1  0  0  0  0
 17 22  2  0  0  0  0
 17 18  1  0  0  0  0
 18 19  2  0  0  0  0
 18 40  1  0  0  0  0
 19 20  1  0  0  0  0
 19 41  1  0  0  0  0
 20 21  2  0  0  0  0
 20 23  1  0  0  0  0
 21 22  1  0  0  0  0
 21 42  1  0  0  0  0
 22 43  1  0  0  0  0
 23 24  1  0  0  0  0
 24 44  1  0  0  0  0
 24 45  1  0  0  0  0
 24 46  1  0  0  0  0
 25 26  1  0  0  0  0
 25 47  1  0  0  0  0
 25 48  1  0  0  0  0
 26 27  1  0  0  0  0
 26 49  1  0  0  0  0
 26 50  1  0  0  0  0
 27 28  2  0  0  0  0
 27 51  1  0  0  0  0
M  CHG  1  51  -1
M  END
$$$$
ZINC03873713
  -OEChem-08230709463D

 48 50  0     0  0  0  0  0  0999 V2000
   -5.1145    3.8627   -3.0347 C   0  0  0  0  0  0  0  0  0  0  0  0
   -4.0367    4.6082   -2.2451 C   0  0  0  0  0  0  0  0  0  0  0  0
   -3.1687    3.6637   -1.6153 O   0  0  0  0  0  0  0  0  0  0  0  0
   -2.1485    4.1650   -0.8687 C   0  0  0  0  0  0  0  0  0  0  0  0
   -1.9897    5.5351   -0.7408 C   0  0  0  0  0  0  0  0  0  0  0  0
   -0.9486    6.0434    0.0140 C   0  0  0  0  0  0  0  0  0  0  0  0
   -0.0668    5.1874    0.6476 C   0  0  0  0  0  0  0  0  0  0  0  0
   -0.2212    3.8191    0.5294 C   0  0  0  0  0  0  0  0  0  0  0  0
   -1.2635    3.3017   -0.2262 C   0  0  0  0  0  0  0  0  0  0  0  0
   -1.4222    1.9159   -0.3475 N   0  0  0  0  0  0  0  0  0  0  0  0
   -0.3369    1.0750   -0.1586 C   0  0  0  0  0  0  0  0  0  0  0  0
   -0.3006   -0.2442   -0.1135 N   0  0  0  0  0  0  0  0  0  0  0  0
    0.8451   -0.8950    0.0736 C   0  0  0  0  0  0  0  0  0  0  0  0
    2.0019   -0.1833    0.2212 C   0  0  0  0  0  0  0  0  0  0  0  0
    1.3852    1.4889    0.0807 S   0  0  0  0  0  0  0  0  0  0  0  0
    3.4098   -0.6730    0.4422 C   0  0  0  0  0  0  0  0  0  0  0  0
    4.1302   -0.7441   -0.8795 C   0  0  0  0  0  0  0  0  0  0  0  0
    3.5589   -0.4295   -1.8966 O   0  0  0  0  0  0  0  0  0  0  0  0
    0.8657   -2.3771    0.1218 C   0  0  0  0  0  0  0  0  0  0  0  0
    1.7838   -3.0895   -0.6484 C   0  0  0  0  0  0  0  0  0  0  0  0
    1.8019   -4.4682   -0.5955 C   0  0  0  0  0  0  0  0  0  0  0  0
    0.9037   -5.1440    0.2111 C   0  0  0  0  0  0  0  0  0  0  0  0
   -0.0129   -4.4427    0.9733 C   0  0  0  0  0  0  0  0  0  0  0  0
   -0.0364   -3.0633    0.9328 C   0  0  0  0  0  0  0  0  0  0  0  0
   -1.0354   -2.3005    1.7643 C   0  0  0  0  0  0  0  0  0  0  0  0
    2.7979   -5.2395   -1.4227 C   0  0  0  0  0  0  0  0  0  0  0  0
   -4.6427    3.2398   -3.7946 H   0  0  0  0  0  0  0  0  0  0  0  0
   -5.6921    3.2341   -2.3569 H   0  0  0  0  0  0  0  0  0  0  0  0
   -5.7766    4.5831   -3.5151 H   0  0  0  0  0  0  0  0  0  0  0  0
   -4.5085    5.2311   -1.4851 H   0  0  0  0  0  0  0  0  0  0  0  0
   -3.4591    5.2368   -2.9229 H   0  0  0  0  0  0  0  0  0  0  0  0
   -2.6765    6.2065   -1.2347 H   0  0  0  0  0  0  0  0  0  0  0  0
   -0.8236    7.1119    0.1085 H   0  0  0  0  0  0  0  0  0  0  0  0
    0.7449    5.5890    1.2360 H   0  0  0  0  0  0  0  0  0  0  0  0
    0.4690    3.1527    1.0254 H   0  0  0  0  0  0  0  0  0  0  0  0
   -2.2917    1.5444   -0.5637 H   0  0  0  0  0  0  0  0  0  0  0  0
    3.9341    0.0153    1.1051 H   0  0  0  0  0  0  0  0  0  0  0  0
    3.3830   -1.6641    0.8951 H   0  0  0  0  0  0  0  0  0  0  0  0
    2.4823   -2.5631   -1.2820 H   0  0  0  0  0  0  0  0  0  0  0  0
    0.9185   -6.2234    0.2459 H   0  0  0  0  0  0  0  0  0  0  0  0
   -0.7118   -4.9755    1.6011 H   0  0  0  0  0  0  0  0  0  0  0  0
   -1.9100   -2.0664    1.1573 H   0  0  0  0  0  0  0  0  0  0  0  0
   -1.3373   -2.9080    2.6174 H   0  0  0  0  0  0  0  0  0  0  0  0
   -0.5814   -1.3754    2.1195 H   0  0  0  0  0  0  0  0  0  0  0  0
    2.3662   -5.4597   -2.3990 H   0  0  0  0  0  0  0  0  0  0  0  0
    3.7020   -4.6443   -1.5511 H   0  0  0  0  0  0  0  0  0  0  0  0
    3.0458   -6.1723   -0.9163 H   0  0  0  0  0  0  0  0  0  0  0  0
    5.4066   -1.1570   -0.9269 O   0  5  0  0  0  0  0  0  0  0  0  0
  1  2  1  0  0  0  0
  1 27  1  0  0  0  0
  1 28  1  0  0  0  0
  1 29  1  0  0  0  0
  2  3  1  0  0  0  0
  2 30  1  0  0  0  0
  2 31  1  0  0  0  0
  3  4  1  0  0  0  0
  4  9  2  0  0  0  0
  4  5  1  0  0  0  0
  5  6  2  0  0  0  0
  5 32  1  0  0  0  0
  6  7  1  0  0  0  0
  6 33  1  0  0  0  0
  7  8  2  0  0  0  0
  7 34  1  0  0  0  0
  8  9  1  0  0  0  0
  8 35  1  0  0  0  0
  9 10  1  0  0  0  0
 10 11  1  0  0  0  0
 10 36  1  0  0  0  0
 11 15  1  0  0  0  0
 11 12  2  0  0  0  0
 12 13  1  0  0  0  0
 13 14  2  0  0  0  0
 13 19  1  0  0  0  0
 14 15  1  0  0  0  0
 14 16  1  0  0  0  0
 16 17  1  0  0  0  0
 16 37  1  0  0  0  0
 16 38  1  0  0  0  0
 17 18  2  0  0  0  0
 17 48  1  0  0  0  0
 19 24  2  0  0  0  0
 19 20  1  0  0  0  0
 20 21  2  0  0  0  0
 20 39  1  0  0  0  0
 21 22  1  0  0  0  0
 21 26  1  0  0  0  0
 22 23  2  0  0  0  0
 22 40  1  0  0  0  0
 23 24  1  0  0  0  0
 23 41  1  0  0  0  0
 24 25  1  0  0  0  0
 25 42  1  0  0  0  0
 25 43  1  0  0  0  0
 25 44  1  0  0  0  0
 26 45  1  0  0  0  0
 26 46  1  0  0  0  0
 26 47  1  0  0  0  0
M  CHG  1  48  -1
M  END
$$$$
ZINC03874121
  -OEChem-08230709463D

 55 58  0     1  0  0  0  0  0999 V2000
    2.8972    5.4388   -0.4885 C   0  0  0  0  0  0  0  0  0  0  0  0
    2.7392    3.9696   -0.1924 C   0  0  0  0  0  0  0  0  0  0  0  0
    3.8499    3.1983    0.0983 C   0  0  0  0  0  0  0  0  0  0  0  0
    3.7036    1.8541    0.3649 C   0  0  0  0  0  0  0  0  0  0  0  0
    2.4387    1.2633    0.3446 C   0  0  0  0  0  0  0  0  0  0  0  0
    1.3301    2.0408    0.0594 C   0  0  0  0  0  0  0  0  0  0  0  0
    1.4857    3.3914   -0.2114 C   0  0  0  0  0  0  0  0  0  0  0  0
   -0.0641    1.4666    0.0324 C   0  0  0  0  0  0  0  0  0  0  0  0
    0.0083   -0.0613   -0.0274 C   0  0  2  0  0  0  0  0  0  0  0  0
    1.0188   -0.5270    1.0290 C   0  0  0  0  0  0  0  0  0  0  0  0
    2.3577   -0.1017    0.6167 N   0  0  2  0  0  0  0  0  0  0  0  0
    3.3656   -0.5017    1.6076 C   0  0  0  0  0  0  0  0  0  0  0  0
    0.4707   -0.4937   -1.3886 C   0  0  0  0  0  0  0  0  0  0  0  0
   -0.2391   -1.2699   -2.1500 N   0  0  0  0  0  0  0  0  0  0  0  0
   -1.4380   -1.7430   -1.7800 C   0  0  0  0  0  0  0  0  0  0  0  0
   -2.0500   -2.4681   -2.5413 O   0  0  0  0  0  0  0  0  0  0  0  0
   -1.9795   -1.4369   -0.5904 N   0  0  0  0  0  0  0  0  0  0  0  0
   -1.3420   -0.6426    0.2839 C   0  0  0  0  0  0  0  0  0  0  0  0
   -1.8663   -0.3894    1.3474 O   0  0  0  0  0  0  0  0  0  0  0  0
   -3.2935   -1.9811   -0.2391 C   0  0  0  0  0  0  0  0  0  0  0  0
   -3.1159   -3.3255    0.4694 C   0  0  0  0  0  0  0  0  0  0  0  0
   -4.4676   -3.8853    0.8308 C   0  0  0  0  0  0  0  0  0  0  0  0
   -5.0350   -3.5830    2.0549 C   0  0  0  0  0  0  0  0  0  0  0  0
   -6.2765   -4.0904    2.3862 C   0  0  0  0  0  0  0  0  0  0  0  0
   -6.9487   -4.9133    1.4943 C   0  0  0  0  0  0  0  0  0  0  0  0
   -6.3748   -5.2197    0.2690 C   0  0  0  0  0  0  0  0  0  0  0  0
   -5.1358   -4.7049   -0.0600 C   0  0  0  0  0  0  0  0  0  0  0  0
   -8.1673   -5.4189    1.8206 O   0  0  0  0  0  0  0  0  0  0  0  0
   -8.6970   -5.0613    3.0987 C   0  0  0  0  0  0  0  0  0  0  0  0
    1.6615   -0.0625   -1.8346 O   0  0  0  0  0  0  0  0  0  0  0  0
    2.8217    6.0065    0.4389 H   0  0  0  0  0  0  0  0  0  0  0  0
    3.8717    5.6149   -0.9440 H   0  0  0  0  0  0  0  0  0  0  0  0
    2.1125    5.7576   -1.1745 H   0  0  0  0  0  0  0  0  0  0  0  0
    4.8312    3.6491    0.1160 H   0  0  0  0  0  0  0  0  0  0  0  0
    4.5726    1.2541    0.5912 H   0  0  0  0  0  0  0  0  0  0  0  0
    0.6200    3.9958   -0.4385 H   0  0  0  0  0  0  0  0  0  0  0  0
   -0.5928    1.8392   -0.8449 H   0  0  0  0  0  0  0  0  0  0  0  0
   -0.5985    1.7694    0.9328 H   0  0  0  0  0  0  0  0  0  0  0  0
    0.7734   -0.0795    1.9921 H   0  0  0  0  0  0  0  0  0  0  0  0
    0.9869   -1.6134    1.1117 H   0  0  0  0  0  0  0  0  0  0  0  0
    3.2671   -1.5670    1.8164 H   0  0  0  0  0  0  0  0  0  0  0  0
    4.3619   -0.2990    1.2147 H   0  0  0  0  0  0  0  0  0  0  0  0
    3.2156    0.0641    2.5271 H   0  0  0  0  0  0  0  0  0  0  0  0
   -3.8091   -1.2863    0.4239 H   0  0  0  0  0  0  0  0  0  0  0  0
   -3.8821   -2.1231   -1.1455 H   0  0  0  0  0  0  0  0  0  0  0  0
   -2.6003   -4.0203   -0.1935 H   0  0  0  0  0  0  0  0  0  0  0  0
   -2.5273   -3.1835    1.3758 H   0  0  0  0  0  0  0  0  0  0  0  0
   -4.5090   -2.9465    2.7510 H   0  0  0  0  0  0  0  0  0  0  0  0
   -6.7214   -3.8501    3.3405 H   0  0  0  0  0  0  0  0  0  0  0  0
   -6.8960   -5.8604   -0.4268 H   0  0  0  0  0  0  0  0  0  0  0  0
   -4.6885   -4.9431   -1.0138 H   0  0  0  0  0  0  0  0  0  0  0  0
   -9.6717   -5.5305    3.2322 H   0  0  0  0  0  0  0  0  0  0  0  0
   -8.0193   -5.4025    3.8812 H   0  0  0  0  0  0  0  0  0  0  0  0
   -8.8040   -3.9782    3.1575 H   0  0  0  0  0  0  0  0  0  0  0  0
    1.9335   -0.3570   -2.7146 H   0  0  0  0  0  0  0  0  0  0  0  0
  1  2  1  0  0  0  0
  1 31  1  0  0  0  0
  1 32  1  0  0  0  0
  1 33  1  0  0  0  0
  2  7  2  0  0  0  0
  2  3  1  0  0  0  0
  3  4  2  0  0  0  0
  3 34  1  0  0  0  0
  4  5  1  0  0  0  0
  4 35  1  0  0  0  0
  5 11  1  0  0  0  0
  5  6  2  0  0  0  0
  6  7  1  0  0  0  0
  6  8  1  0  0  0  0
  7 36  1  0  0  0  0
  8  9  1  0  0  0  0
  8 37  1  0  0  0  0
  8 38  1  0  0  0  0
  9 18  1  0  0  0  0
  9 10  1  0  0  0  0
  9 13  1  0  0  0  0
 10 11  1  0  0  0  0
 10 39  1  0  0  0  0
 10 40  1  0  0  0  0
 11 12  1  0  0  0  0
 12 41  1  0  0  0  0
 12 42  1  0  0  0  0
 12 43  1  0  0  0  0
 13 14  2  0  0  0  0
 13 30  1  0  0  0  0
 14 15  1  0  0  0  0
 15 16  2  0  0  0  0
 15 17  1  0  0  0  0
 17 18  1  0  0  0  0
 17 20  1  0  0  0  0
 18 19  2  0  0  0  0
 20 21  1  0  0  0  0
 20 44  1  0  0  0  0
 20 45  1  0  0  0  0
 21 22  1  0  0  0  0
 21 46  1  0  0  0  0
 21 47  1  0  0  0  0
 22 27  2  0  0  0  0
 22 23  1  0  0  0  0
 23 24  2  0  0  0  0
 23 48  1  0  0  0  0
 24 25  1  0  0  0  0
 24 49  1  0  0  0  0
 25 26  2  0  0  0  0
 25 28  1  0  0  0  0
 26 27  1  0  0  0  0
 26 50  1  0  0  0  0
 27 51  1  0  0  0  0
 28 29  1  0  0  0  0
 29 52  1  0  0  0  0
 29 53  1  0  0  0  0
 29 54  1  0  0  0  0
 30 55  1  0  0  0  0
M  END
$$$$
ZINC03885045
  -OEChem-08230709463D

 51 54  0     0  0  0  0  0  0999 V2000
   10.2429   -7.8856   -1.1363 C   0  0  0  0  0  0  0  0  0  0  0  0
   10.2214   -7.3674    0.3032 C   0  0  0  0  0  0  0  0  0  0  0  0
   10.4802   -5.9254    0.3070 N   0  0  0  0  0  0  0  0  0  0  0  0
   11.8545   -5.4281    0.4079 C   0  0  0  0  0  0  0  0  0  0  0  0
   12.2215   -5.2388    1.8812 C   0  0  0  0  0  0  0  0  0  0  0  0
    9.4191   -5.0268    0.2146 C   0  0  0  0  0  0  0  0  0  0  0  0
    9.6670   -3.6576    0.2184 C   0  0  0  0  0  0  0  0  0  0  0  0
    8.6214   -2.7665    0.1273 C   0  0  0  0  0  0  0  0  0  0  0  0
    7.3084   -3.2393    0.0308 C   0  0  0  0  0  0  0  0  0  0  0  0
    7.0629   -4.6165    0.0326 C   0  0  0  0  0  0  0  0  0  0  0  0
    8.1144   -5.5011    0.1192 C   0  0  0  0  0  0  0  0  0  0  0  0
    6.1876   -2.2902   -0.0663 C   0  0  0  0  0  0  0  0  0  0  0  0
    4.9205   -2.7358    0.0086 C   0  0  0  0  0  0  0  0  0  0  0  0
    4.4943   -4.1816    0.0632 C   0  0  0  0  0  0  0  0  0  0  0  0
    2.9621   -4.1558    0.1418 C   0  0  0  0  0  0  0  0  0  0  0  0
    2.5622   -2.7009    0.1297 C   0  0  0  0  0  0  0  0  0  0  0  0
    3.7097   -1.8938    0.0522 C   0  0  0  0  0  0  0  0  0  0  0  0
    3.6162   -0.5681    0.0272 N   0  0  0  0  0  0  0  0  0  0  0  0
    2.4527    0.0762    0.0743 C   0  0  0  0  0  0  0  0  0  0  0  0
    2.3991    1.4829    0.0460 C   0  0  0  0  0  0  0  0  0  0  0  0
    1.1942    2.1138    0.0958 C   0  0  0  0  0  0  0  0  0  0  0  0
    0.0061    1.3908    0.1736 C   0  0  0  0  0  0  0  0  0  0  0  0
    0.0192    0.0271    0.2025 C   0  0  0  0  0  0  0  0  0  0  0  0
    1.2396   -0.6531    0.1535 C   0  0  0  0  0  0  0  0  0  0  0  0
    1.3058   -2.1146    0.1822 C   0  0  0  0  0  0  0  0  0  0  0  0
    0.0798   -2.9358    0.2637 C   0  0  0  0  0  0  0  0  0  0  0  0
   -0.4783   -3.2964   -0.7531 O   0  0  0  0  0  0  0  0  0  0  0  0
   10.0503   -8.9584   -1.1391 H   0  0  0  0  0  0  0  0  0  0  0  0
    9.4735   -7.3768   -1.7171 H   0  0  0  0  0  0  0  0  0  0  0  0
   11.2200   -7.6906   -1.5781 H   0  0  0  0  0  0  0  0  0  0  0  0
   10.9908   -7.8761    0.8840 H   0  0  0  0  0  0  0  0  0  0  0  0
    9.2443   -7.5623    0.7450 H   0  0  0  0  0  0  0  0  0  0  0  0
   12.5356   -6.1477   -0.0465 H   0  0  0  0  0  0  0  0  0  0  0  0
   11.9346   -4.4735   -0.1120 H   0  0  0  0  0  0  0  0  0  0  0  0
   13.2440   -4.8688    1.9563 H   0  0  0  0  0  0  0  0  0  0  0  0
   11.5404   -4.5193    2.3357 H   0  0  0  0  0  0  0  0  0  0  0  0
   12.1414   -6.1935    2.4011 H   0  0  0  0  0  0  0  0  0  0  0  0
   10.6809   -3.2933    0.2933 H   0  0  0  0  0  0  0  0  0  0  0  0
    8.8146   -1.7040    0.1299 H   0  0  0  0  0  0  0  0  0  0  0  0
    6.0503   -4.9854   -0.0372 H   0  0  0  0  0  0  0  0  0  0  0  0
    7.9261   -6.5646    0.1170 H   0  0  0  0  0  0  0  0  0  0  0  0
    6.3824   -1.2361   -0.1977 H   0  0  0  0  0  0  0  0  0  0  0  0
    4.8168   -4.7040   -0.8375 H   0  0  0  0  0  0  0  0  0  0  0  0
    4.9104   -4.6642    0.9476 H   0  0  0  0  0  0  0  0  0  0  0  0
    2.6265   -4.6287    1.0648 H   0  0  0  0  0  0  0  0  0  0  0  0
    2.5342   -4.6689   -0.7195 H   0  0  0  0  0  0  0  0  0  0  0  0
    3.3105    2.0591   -0.0141 H   0  0  0  0  0  0  0  0  0  0  0  0
    1.1586    3.1930    0.0743 H   0  0  0  0  0  0  0  0  0  0  0  0
   -0.9370    1.9161    0.2069 H   0  0  0  0  0  0  0  0  0  0  0  0
   -0.9077   -0.5239    0.2633 H   0  0  0  0  0  0  0  0  0  0  0  0
   -0.4188   -3.2844    1.4656 O   0  5  0  0  0  0  0  0  0  0  0  0
  1  2  1  0  0  0  0
  1 28  1  0  0  0  0
  1 29  1  0  0  0  0
  1 30  1  0  0  0  0
  2  3  1  0  0  0  0
  2 31  1  0  0  0  0
  2 32  1  0  0  0  0
  3  4  1  0  0  0  0
  3  6  1  0  0  0  0
  4  5  1  0  0  0  0
  4 33  1  0  0  0  0
  4 34  1  0  0  0  0
  5 35  1  0  0  0  0
  5 36  1  0  0  0  0
  5 37  1  0  0  0  0
  6 11  2  0  0  0  0
  6  7  1  0  0  0  0
  7  8  2  0  0  0  0
  7 38  1  0  0  0  0
  8  9  1  0  0  0  0
  8 39  1  0  0  0  0
  9 10  2  0  0  0  0
  9 12  1  0  0  0  0
 10 11  1  0  0  0  0
 10 40  1  0  0  0  0
 11 41  1  0  0  0  0
 12 13  2  0  0  0  0
 12 42  1  0  0  0  0
 13 17  1  0  0  0  0
 13 14  1  0  0  0  0
 14 15  1  0  0  0  0
 14 43  1  0  0  0  0
 14 44  1  0  0  0  0
 15 16  1  0  0  0  0
 15 45  1  0  0  0  0
 15 46  1  0  0  0  0
 16 25  2  0  0  0  0
 16 17  1  0  0  0  0
 17 18  2  0  0  0  0
 18 19  1  0  0  0  0
 19 24  2  0  0  0  0
 19 20  1  0  0  0  0
 20 21  2  0  0  0  0
 20 47  1  0  0  0  0
 21 22  1  0  0  0  0
 21 48  1  0  0  0  0
 22 23  2  0  0  0  0
 22 49  1  0  0  0  0
 23 24  1  0  0  0  0
 23 50  1  0  0  0  0
 24 25  1  0  0  0  0
 25 26  1  0  0  0  0
 26 27  2  0  0  0  0
 26 51  1  0  0  0  0
M  CHG  1  51  -1
M  END
$$$$
ZINC03885063
  -OEChem-08230709463D

 54 57  0     0  0  0  0  0  0999 V2000
   -0.7920   -1.4547    1.5690 C   0  0  0  0  0  0  0  0  0  0  0  0
   -0.5615   -0.1988    0.7260 C   0  0  0  0  0  0  0  0  0  0  0  0
   -0.9719    0.9830    1.4883 N   0  0  0  0  0  0  0  0  0  0  0  0
   -0.0043    1.6762    2.3424 C   0  0  0  0  0  0  0  0  0  0  0  0
    0.7058    2.7620    1.5314 C   0  0  0  0  0  0  0  0  0  0  0  0
   -2.2828    1.4479    1.4009 C   0  0  0  0  0  0  0  0  0  0  0  0
   -3.1989    0.7915    0.5847 C   0  0  0  0  0  0  0  0  0  0  0  0
   -4.4961    1.2447    0.4994 C   0  0  0  0  0  0  0  0  0  0  0  0
   -4.8900    2.3731    1.2264 C   0  0  0  0  0  0  0  0  0  0  0  0
   -3.9647    3.0333    2.0418 C   0  0  0  0  0  0  0  0  0  0  0  0
   -2.6707    2.5706    2.1257 C   0  0  0  0  0  0  0  0  0  0  0  0
   -6.2743    2.8646    1.1334 C   0  0  0  0  0  0  0  0  0  0  0  0
   -6.9581    2.7349   -0.0177 C   0  0  0  0  0  0  0  0  0  0  0  0
   -6.2781    2.2547   -1.2817 C   0  0  0  0  0  0  0  0  0  0  0  0
   -6.7682    3.1305   -2.4360 C   0  0  0  0  0  0  0  0  0  0  0  0
   -8.2680    2.9239   -2.6297 C   0  0  0  0  0  0  0  0  0  0  0  0
   -9.0208    3.1610   -1.3501 C   0  0  0  0  0  0  0  0  0  0  0  0
   -8.3988    3.0625   -0.0922 C   0  0  0  0  0  0  0  0  0  0  0  0
   -9.0648    3.2550    1.0347 N   0  0  0  0  0  0  0  0  0  0  0  0
  -10.3618    3.5590    1.0596 C   0  0  0  0  0  0  0  0  0  0  0  0
  -11.0400    3.7539    2.2774 C   0  0  0  0  0  0  0  0  0  0  0  0
  -12.3646    4.0666    2.2696 C   0  0  0  0  0  0  0  0  0  0  0  0
  -13.0654    4.1974    1.0729 C   0  0  0  0  0  0  0  0  0  0  0  0
  -12.4414    4.0139   -0.1260 C   0  0  0  0  0  0  0  0  0  0  0  0
  -11.0810    3.6914   -0.1549 C   0  0  0  0  0  0  0  0  0  0  0  0
  -10.3705    3.4809   -1.4166 C   0  0  0  0  0  0  0  0  0  0  0  0
  -11.0649    3.6034   -2.7155 C   0  0  0  0  0  0  0  0  0  0  0  0
  -11.1069    4.6765   -3.2829 O   0  0  0  0  0  0  0  0  0  0  0  0
   -0.4866   -2.3340    1.0018 H   0  0  0  0  0  0  0  0  0  0  0  0
   -0.2040   -1.3907    2.4846 H   0  0  0  0  0  0  0  0  0  0  0  0
   -1.8494   -1.5341    1.8210 H   0  0  0  0  0  0  0  0  0  0  0  0
    0.4960   -0.1194    0.4740 H   0  0  0  0  0  0  0  0  0  0  0  0
   -1.1494   -0.2628   -0.1896 H   0  0  0  0  0  0  0  0  0  0  0  0
   -0.5246    2.1332    3.1841 H   0  0  0  0  0  0  0  0  0  0  0  0
    0.7300    0.9614    2.7138 H   0  0  0  0  0  0  0  0  0  0  0  0
    1.4258    3.2777    2.1669 H   0  0  0  0  0  0  0  0  0  0  0  0
    1.2261    2.3050    0.6897 H   0  0  0  0  0  0  0  0  0  0  0  0
   -0.0284    3.4768    1.1600 H   0  0  0  0  0  0  0  0  0  0  0  0
   -2.8928   -0.0769    0.0202 H   0  0  0  0  0  0  0  0  0  0  0  0
   -5.2076    0.7323   -0.1312 H   0  0  0  0  0  0  0  0  0  0  0  0
   -4.2650    3.9045    2.6049 H   0  0  0  0  0  0  0  0  0  0  0  0
   -1.9556    3.0799    2.7547 H   0  0  0  0  0  0  0  0  0  0  0  0
   -6.7409    3.3294    1.9893 H   0  0  0  0  0  0  0  0  0  0  0  0
   -5.1971    2.3487   -1.1791 H   0  0  0  0  0  0  0  0  0  0  0  0
   -6.5437    1.2150   -1.4729 H   0  0  0  0  0  0  0  0  0  0  0  0
   -6.2421    2.8564   -3.3504 H   0  0  0  0  0  0  0  0  0  0  0  0
   -6.5722    4.1770   -2.2027 H   0  0  0  0  0  0  0  0  0  0  0  0
   -8.4473    1.9026   -2.9654 H   0  0  0  0  0  0  0  0  0  0  0  0
   -8.6279    3.6177   -3.3894 H   0  0  0  0  0  0  0  0  0  0  0  0
  -10.5116    3.6553    3.2142 H   0  0  0  0  0  0  0  0  0  0  0  0
  -12.8808    4.2155    3.2065 H   0  0  0  0  0  0  0  0  0  0  0  0
  -14.1160    4.4469    1.0946 H   0  0  0  0  0  0  0  0  0  0  0  0
  -12.9947    4.1175   -1.0477 H   0  0  0  0  0  0  0  0  0  0  0  0
  -11.6512    2.5248   -3.2702 O   0  5  0  0  0  0  0  0  0  0  0  0
  1  2  1  0  0  0  0
  1 29  1  0  0  0  0
  1 30  1  0  0  0  0
  1 31  1  0  0  0  0
  2  3  1  0  0  0  0
  2 32  1  0  0  0  0
  2 33  1  0  0  0  0
  3  4  1  0  0  0  0
  3  6  1  0  0  0  0
  4  5  1  0  0  0  0
  4 34  1  0  0  0  0
  4 35  1  0  0  0  0
  5 36  1  0  0  0  0
  5 37  1  0  0  0  0
  5 38  1  0  0  0  0
  6 11  2  0  0  0  0
  6  7  1  0  0  0  0
  7  8  2  0  0  0  0
  7 39  1  0  0  0  0
  8  9  1  0  0  0  0
  8 40  1  0  0  0  0
  9 10  2  0  0  0  0
  9 12  1  0  0  0  0
 10 11  1  0  0  0  0
 10 41  1  0  0  0  0
 11 42  1  0  0  0  0
 12 13  2  0  0  0  0
 12 43  1  0  0  0  0
 13 18  1  0  0  0  0
 13 14  1  0  0  0  0
 14 15  1  0  0  0  0
 14 44  1  0  0  0  0
 14 45  1  0  0  0  0
 15 16  1  0  0  0  0
 15 46  1  0  0  0  0
 15 47  1  0  0  0  0
 16 17  1  0  0  0  0
 16 48  1  0  0  0  0
 16 49  1  0  0  0  0
 17 26  2  0  0  0  0
 17 18  1  0  0  0  0
 18 19  2  0  0  0  0
 19 20  1  0  0  0  0
 20 25  2  0  0  0  0
 20 21  1  0  0  0  0
 21 22  2  0  0  0  0
 21 50  1  0  0  0  0
 22 23  1  0  0  0  0
 22 51  1  0  0  0  0
 23 24  2  0  0  0  0
 23 52  1  0  0  0  0
 24 25  1  0  0  0  0
 24 53  1  0  0  0  0
 25 26  1  0  0  0  0
 26 27  1  0  0  0  0
 27 28  2  0  0  0  0
 27 54  1  0  0  0  0
M  CHG  1  54  -1
M  END
$$$$
ZINC03885957
  -OEChem-08230709463D

 57 60  0     1  0  0  0  0  0999 V2000
   -1.6766    2.6651    1.1096 C   0  0  0  0  0  0  0  0  0  0  0  0
   -1.7934    2.4776    2.6236 C   0  0  0  0  0  0  0  0  0  0  0  0
   -0.6686    1.6713    3.1040 N   0  0  0  0  0  0  0  0  0  0  0  0
   -0.7851    0.2120    3.1611 C   0  0  0  0  0  0  0  0  0  0  0  0
   -0.3172   -0.3892    1.8343 C   0  0  0  0  0  0  0  0  0  0  0  0
    0.5122    2.2924    3.5068 C   0  0  0  0  0  0  0  0  0  0  0  0
    0.6228    3.6781    3.4464 C   0  0  0  0  0  0  0  0  0  0  0  0
    1.7859    4.2958    3.8479 C   0  0  0  0  0  0  0  0  0  0  0  0
    2.8611    3.5276    4.3069 C   0  0  0  0  0  0  0  0  0  0  0  0
    2.7478    2.1344    4.3611 C   0  0  0  0  0  0  0  0  0  0  0  0
    1.5794    1.5247    3.9628 C   0  0  0  0  0  0  0  0  0  0  0  0
    4.1085    4.1835    4.7314 C   0  0  0  0  0  0  0  0  0  0  0  0
    4.5115    5.3166    4.1286 C   0  0  0  0  0  0  0  0  0  0  0  0
    3.8046    5.8419    2.8976 C   0  0  0  0  0  0  0  0  0  0  0  0
    4.8763    6.3005    1.9062 C   0  0  2  0  0  0  0  0  0  0  0  0
    5.5576    5.4743    1.7031 H   0  0  0  0  0  0  0  0  0  0  0  0
    5.6557    7.4681    2.5051 C   0  0  0  0  0  0  0  0  0  0  0  0
    6.2151    7.1150    3.8552 C   0  0  0  0  0  0  0  0  0  0  0  0
    5.6642    6.0880    4.6429 C   0  0  0  0  0  0  0  0  0  0  0  0
    6.1475    5.7863    5.8370 N   0  0  0  0  0  0  0  0  0  0  0  0
    7.1854    6.4258    6.3745 C   0  0  0  0  0  0  0  0  0  0  0  0
    7.6727    6.0796    7.6487 C   0  0  0  0  0  0  0  0  0  0  0  0
    8.7358    6.7509    8.1700 C   0  0  0  0  0  0  0  0  0  0  0  0
    9.3539    7.7793    7.4623 C   0  0  0  0  0  0  0  0  0  0  0  0
    8.9086    8.1422    6.2253 C   0  0  0  0  0  0  0  0  0  0  0  0
    7.8180    7.4740    5.6597 C   0  0  0  0  0  0  0  0  0  0  0  0
    7.3034    7.8306    4.3372 C   0  0  0  0  0  0  0  0  0  0  0  0
    7.9202    8.9132    3.5424 C   0  0  0  0  0  0  0  0  0  0  0  0
    8.8266    8.6618    2.7740 O   0  0  0  0  0  0  0  0  0  0  0  0
    4.2102    6.7462    0.6029 C   0  0  0  0  0  0  0  0  0  0  0  0
   -1.6928    1.6911    0.6206 H   0  0  0  0  0  0  0  0  0  0  0  0
   -0.7404    3.1727    0.8775 H   0  0  0  0  0  0  0  0  0  0  0  0
   -2.5135    3.2651    0.7522 H   0  0  0  0  0  0  0  0  0  0  0  0
   -1.7773    3.4517    3.1126 H   0  0  0  0  0  0  0  0  0  0  0  0
   -2.7297    1.9700    2.8557 H   0  0  0  0  0  0  0  0  0  0  0  0
   -0.1652   -0.1705    3.9720 H   0  0  0  0  0  0  0  0  0  0  0  0
   -1.8249   -0.0628    3.3380 H   0  0  0  0  0  0  0  0  0  0  0  0
    0.7226   -0.1143    1.6574 H   0  0  0  0  0  0  0  0  0  0  0  0
   -0.4039   -1.4749    1.8767 H   0  0  0  0  0  0  0  0  0  0  0  0
   -0.9371   -0.0067    1.0234 H   0  0  0  0  0  0  0  0  0  0  0  0
   -0.2061    4.2702    3.0876 H   0  0  0  0  0  0  0  0  0  0  0  0
    1.8696    5.3717    3.8046 H   0  0  0  0  0  0  0  0  0  0  0  0
    3.5755    1.5379    4.7153 H   0  0  0  0  0  0  0  0  0  0  0  0
    1.4912    0.4491    4.0040 H   0  0  0  0  0  0  0  0  0  0  0  0
    4.7004    3.7551    5.5267 H   0  0  0  0  0  0  0  0  0  0  0  0
    3.2020    5.0510    2.4511 H   0  0  0  0  0  0  0  0  0  0  0  0
    3.1690    6.6853    3.1673 H   0  0  0  0  0  0  0  0  0  0  0  0
    4.9912    8.3260    2.6073 H   0  0  0  0  0  0  0  0  0  0  0  0
    6.4756    7.7305    1.8365 H   0  0  0  0  0  0  0  0  0  0  0  0
    7.2044    5.2851    8.2109 H   0  0  0  0  0  0  0  0  0  0  0  0
    9.1061    6.4820    9.1483 H   0  0  0  0  0  0  0  0  0  0  0  0
   10.1963    8.2955    7.8985 H   0  0  0  0  0  0  0  0  0  0  0  0
    9.3952    8.9412    5.6857 H   0  0  0  0  0  0  0  0  0  0  0  0
    4.9743    7.0726   -0.1026 H   0  0  0  0  0  0  0  0  0  0  0  0
    3.6537    5.9121    0.1755 H   0  0  0  0  0  0  0  0  0  0  0  0
    3.5280    7.5714    0.8071 H   0  0  0  0  0  0  0  0  0  0  0  0
    7.4770   10.1790    3.6701 O   0  5  0  0  0  0  0  0  0  0  0  0
  1  2  1  0  0  0  0
  1 31  1  0  0  0  0
  1 32  1  0  0  0  0
  1 33  1  0  0  0  0
  2  3  1  0  0  0  0
  2 34  1  0  0  0  0
  2 35  1  0  0  0  0
  3  4  1  0  0  0  0
  3  6  1  0  0  0  0
  4  5  1  0  0  0  0
  4 36  1  0  0  0  0
  4 37  1  0  0  0  0
  5 38  1  0  0  0  0
  5 39  1  0  0  0  0
  5 40  1  0  0  0  0
  6 11  2  0  0  0  0
  6  7  1  0  0  0  0
  7  8  2  0  0  0  0
  7 41  1  0  0  0  0
  8  9  1  0  0  0  0
  8 42  1  0  0  0  0
  9 10  2  0  0  0  0
  9 12  1  0  0  0  0
 10 11  1  0  0  0  0
 10 43  1  0  0  0  0
 11 44  1  0  0  0  0
 12 13  2  0  0  0  0
 12 45  1  0  0  0  0
 13 19  1  0  0  0  0
 13 14  1  0  0  0  0
 14 15  1  0  0  0  0
 14 46  1  0  0  0  0
 14 47  1  0  0  0  0
 15 16  1  0  0  0  0
 15 17  1  0  0  0  0
 15 30  1  0  0  0  0
 17 18  1  0  0  0  0
 17 48  1  0  0  0  0
 17 49  1  0  0  0  0
 18 27  2  0  0  0  0
 18 19  1  0  0  0  0
 19 20  2  0  0  0  0
 20 21  1  0  0  0  0
 21 26  2  0  0  0  0
 21 22  1  0  0  0  0
 22 23  2  0  0  0  0
 22 50  1  0  0  0  0
 23 24  1  0  0  0  0
 23 51  1  0  0  0  0
 24 25  2  0  0  0  0
 24 52  1  0  0  0  0
 25 26  1  0  0  0  0
 25 53  1  0  0  0  0
 26 27  1  0  0  0  0
 27 28  1  0  0  0  0
 28 29  2  0  0  0  0
 28 57  1  0  0  0  0
 30 54  1  0  0  0  0
 30 55  1  0  0  0  0
 30 56  1  0  0  0  0
M  CHG  1  57  -1
M  END
$$$$
ZINC03889272
  -OEChem-08230709463D

 62 65  0     1  0  0  0  0  0999 V2000
   -5.0135   -1.5978   -2.1172 C   0  0  0  0  0  0  0  0  0  0  0  0
   -3.8222   -0.8498   -1.5765 C   0  0  0  0  0  0  0  0  0  0  0  0
   -3.0108   -0.1301   -2.4336 C   0  0  0  0  0  0  0  0  0  0  0  0
   -1.9183    0.5564   -1.9375 C   0  0  0  0  0  0  0  0  0  0  0  0
   -1.6369    0.5229   -0.5845 C   0  0  0  0  0  0  0  0  0  0  0  0
   -2.4451   -0.2014    0.2717 C   0  0  0  0  0  0  0  0  0  0  0  0
   -3.5406   -0.8836   -0.2235 C   0  0  0  0  0  0  0  0  0  0  0  0
   -0.4457    1.2709   -0.0439 C   0  0  2  0  0  0  0  0  0  0  0  0
   -0.1454    2.0395   -0.7561 H   0  0  0  0  0  0  0  0  0  0  0  0
    0.7132    0.2959    0.1732 C   0  0  0  0  0  0  0  0  0  0  0  0
    1.9447    1.0624    0.5819 C   0  0  0  0  0  0  0  0  0  0  0  0
    1.8842    2.2572    0.7512 O   0  0  0  0  0  0  0  0  0  0  0  0
   -0.8009    1.8988    1.2312 N   0  0  0  0  0  0  0  0  0  0  0  0
   -1.3319    3.1726    1.2489 C   0  0  0  0  0  0  0  0  0  0  0  0
   -1.4146    3.8739    0.1226 N   0  0  0  0  0  0  0  0  0  0  0  0
   -1.9303    5.0991    0.1389 C   0  0  0  0  0  0  0  0  0  0  0  0
   -2.3542    5.6267    1.2831 N   0  0  0  0  0  0  0  0  0  0  0  0
   -2.2669    4.9272    2.4102 C   0  0  0  0  0  0  0  0  0  0  0  0
   -1.7558    3.7002    2.3931 N   0  0  0  0  0  0  0  0  0  0  0  0
   -2.7065    5.4752    3.5981 N   0  0  0  0  0  0  0  0  0  0  0  0
   -2.0411    6.7568    3.8645 C   0  0  0  0  0  0  0  0  0  0  0  0
   -2.6553    7.4031    5.1084 C   0  0  0  0  0  0  0  0  0  0  0  0
   -2.4862    6.4608    6.3034 C   0  0  0  0  0  0  0  0  0  0  0  0
   -3.1460    5.1171    5.9812 C   0  0  0  0  0  0  0  0  0  0  0  0
   -2.5176    4.5371    4.7120 C   0  0  0  0  0  0  0  0  0  0  0  0
   -2.0205    5.8254   -1.0312 N   0  0  0  0  0  0  0  0  0  0  0  0
   -3.4106    6.2118   -1.3049 C   0  0  0  0  0  0  0  0  0  0  0  0
   -3.4541    7.1345   -2.5250 C   0  0  0  0  0  0  0  0  0  0  0  0
   -2.8606    6.4040   -3.7327 C   0  0  0  0  0  0  0  0  0  0  0  0
   -1.4295    5.9699   -3.4040 C   0  0  0  0  0  0  0  0  0  0  0  0
   -1.4446    5.0810   -2.1584 C   0  0  0  0  0  0  0  0  0  0  0  0
   -4.7139   -2.6096   -2.3901 H   0  0  0  0  0  0  0  0  0  0  0  0
   -5.7912   -1.6423   -1.3547 H   0  0  0  0  0  0  0  0  0  0  0  0
   -5.3971   -1.0824   -2.9977 H   0  0  0  0  0  0  0  0  0  0  0  0
   -3.2306   -0.1039   -3.4906 H   0  0  0  0  0  0  0  0  0  0  0  0
   -1.2843    1.1186   -2.6071 H   0  0  0  0  0  0  0  0  0  0  0  0
   -2.2228   -0.2312    1.3282 H   0  0  0  0  0  0  0  0  0  0  0  0
   -4.1744   -1.4462    0.4460 H   0  0  0  0  0  0  0  0  0  0  0  0
    0.4495   -0.4131    0.9579 H   0  0  0  0  0  0  0  0  0  0  0  0
    0.9120   -0.2441   -0.7526 H   0  0  0  0  0  0  0  0  0  0  0  0
   -0.6629    1.4193    2.0630 H   0  0  0  0  0  0  0  0  0  0  0  0
   -0.9776    6.5861    4.0315 H   0  0  0  0  0  0  0  0  0  0  0  0
   -2.1725    7.4190    3.0088 H   0  0  0  0  0  0  0  0  0  0  0  0
   -3.7159    7.5868    4.9370 H   0  0  0  0  0  0  0  0  0  0  0  0
   -2.1506    8.3469    5.3150 H   0  0  0  0  0  0  0  0  0  0  0  0
   -2.9605    6.8981    7.1820 H   0  0  0  0  0  0  0  0  0  0  0  0
   -1.4250    6.3078    6.4994 H   0  0  0  0  0  0  0  0  0  0  0  0
   -4.2144    5.2648    5.8235 H   0  0  0  0  0  0  0  0  0  0  0  0
   -2.9920    4.4277    6.8113 H   0  0  0  0  0  0  0  0  0  0  0  0
   -2.9951    3.5872    4.4718 H   0  0  0  0  0  0  0  0  0  0  0  0
   -1.4518    4.3770    4.8752 H   0  0  0  0  0  0  0  0  0  0  0  0
   -4.0034    5.3189   -1.5034 H   0  0  0  0  0  0  0  0  0  0  0  0
   -3.8194    6.7340   -0.4398 H   0  0  0  0  0  0  0  0  0  0  0  0
   -2.8728    8.0340   -2.3220 H   0  0  0  0  0  0  0  0  0  0  0  0
   -4.4875    7.4086   -2.7373 H   0  0  0  0  0  0  0  0  0  0  0  0
   -2.8499    7.0725   -4.5936 H   0  0  0  0  0  0  0  0  0  0  0  0
   -3.4646    5.5256   -3.9600 H   0  0  0  0  0  0  0  0  0  0  0  0
   -0.8163    6.8510   -3.2149 H   0  0  0  0  0  0  0  0  0  0  0  0
   -1.0164    5.4119   -4.2443 H   0  0  0  0  0  0  0  0  0  0  0  0
   -0.4255    4.7818   -1.9133 H   0  0  0  0  0  0  0  0  0  0  0  0
   -2.0468    4.1935   -2.3531 H   0  0  0  0  0  0  0  0  0  0  0  0
    3.1089    0.4177    0.7579 O   0  5  0  0  0  0  0  0  0  0  0  0
  1  2  1  0  0  0  0
  1 32  1  0  0  0  0
  1 33  1  0  0  0  0
  1 34  1  0  0  0  0
  2  7  2  0  0  0  0
  2  3  1  0  0  0  0
  3  4  2  0  0  0  0
  3 35  1  0  0  0  0
  4  5  1  0  0  0  0
  4 36  1  0  0  0  0
  5  6  2  0  0  0  0
  5  8  1  0  0  0  0
  6  7  1  0  0  0  0
  6 37  1  0  0  0  0
  7 38  1  0  0  0  0
  8  9  1  0  0  0  0
  8 10  1  0  0  0  0
  8 13  1  0  0  0  0
 10 11  1  0  0  0  0
 10 39  1  0  0  0  0
 10 40  1  0  0  0  0
 11 12  2  0  0  0  0
 11 62  1  0  0  0  0
 13 14  1  0  0  0  0
 13 41  1  0  0  0  0
 14 19  2  0  0  0  0
 14 15  1  0  0  0  0
 15 16  2  0  0  0  0
 16 17  1  0  0  0  0
 16 26  1  0  0  0  0
 17 18  2  0  0  0  0
 18 19  1  0  0  0  0
 18 20  1  0  0  0  0
 20 25  1  0  0  0  0
 20 21  1  0  0  0  0
 21 22  1  0  0  0  0
 21 42  1  0  0  0  0
 21 43  1  0  0  0  0
 22 23  1  0  0  0  0
 22 44  1  0  0  0  0
 22 45  1  0  0  0  0
 23 24  1  0  0  0  0
 23 46  1  0  0  0  0
 23 47  1  0  0  0  0
 24 25  1  0  0  0  0
 24 48  1  0  0  0  0
 24 49  1  0  0  0  0
 25 50  1  0  0  0  0
 25 51  1  0  0  0  0
 26 31  1  0  0  0  0
 26 27  1  0  0  0  0
 27 28  1  0  0  0  0
 27 52  1  0  0  0  0
 27 53  1  0  0  0  0
 28 29  1  0  0  0  0
 28 54  1  0  0  0  0
 28 55  1  0  0  0  0
 29 30  1  0  0  0  0
 29 56  1  0  0  0  0
 29 57  1  0  0  0  0
 30 31  1  0  0  0  0
 30 58  1  0  0  0  0
 30 59  1  0  0  0  0
 31 60  1  0  0  0  0
 31 61  1  0  0  0  0
M  CHG  1  62  -1
M  END
$$$$
ZINC03889393
  -OEChem-08230709463D

 50 52  0     0  0  0  0  0  0999 V2000
    1.7998   -1.7848   -0.0573 C   0  0  0  0  0  0  0  0  0  0  0  0
    1.2948   -0.3652   -0.0285 C   0  0  0  0  0  0  0  0  0  0  0  0
    0.0014    0.0017   -0.0103 C   0  0  0  0  0  0  0  0  0  0  0  0
   -0.0172    1.4689    0.0155 C   0  0  0  0  0  0  0  0  0  0  0  0
    1.3033    1.8670    0.0104 C   0  0  0  0  0  0  0  0  0  0  0  0
    2.0781    0.7536   -0.0161 N   0  0  0  0  0  0  0  0  0  0  0  0
    3.4811    0.7518   -0.0285 C   0  0  0  0  0  0  0  0  0  0  0  0
    4.1854    1.2451    1.0616 C   0  0  0  0  0  0  0  0  0  0  0  0
    5.5658    1.2382    1.0521 C   0  0  0  0  0  0  0  0  0  0  0  0
    6.2501    0.7487   -0.0531 C   0  0  0  0  0  0  0  0  0  0  0  0
    5.5451    0.2606   -1.1459 C   0  0  0  0  0  0  0  0  0  0  0  0
    4.1648    0.2621   -1.1332 C   0  0  0  0  0  0  0  0  0  0  0  0
    7.6482    0.7478   -0.0659 N   0  0  0  0  0  0  0  0  0  0  0  0
    8.3702    0.1190   -1.1747 C   0  0  0  0  0  0  0  0  0  0  0  0
    8.3911    1.3756    1.0296 C   0  0  0  0  0  0  0  0  0  0  0  0
    1.7989    3.2900    0.0306 C   0  0  0  0  0  0  0  0  0  0  0  0
   -1.2020    2.3373    0.0360 C   0  0  0  0  0  0  0  0  0  0  0  0
   -1.0599    3.6339    0.0575 N   0  0  0  0  0  0  0  0  0  0  0  0
   -2.1644    4.4436    0.0767 C   0  0  0  0  0  0  0  0  0  0  0  0
   -3.2368    4.1844   -0.7835 C   0  0  0  0  0  0  0  0  0  0  0  0
   -4.3526    4.9923   -0.7648 C   0  0  0  0  0  0  0  0  0  0  0  0
   -4.4170    6.0761    0.1003 C   0  0  0  0  0  0  0  0  0  0  0  0
   -3.3455    6.3493    0.9632 C   0  0  0  0  0  0  0  0  0  0  0  0
   -2.2176    5.5279    0.9481 C   0  0  0  0  0  0  0  0  0  0  0  0
   -3.4110    7.4996    1.8830 C   0  0  0  0  0  0  0  0  0  0  0  0
   -4.3943    8.2133    1.8942 O   0  0  0  0  0  0  0  0  0  0  0  0
   -5.5160    6.8713    0.1107 O   0  0  0  0  0  0  0  0  0  0  0  0
    1.9125   -2.1094   -1.0918 H   0  0  0  0  0  0  0  0  0  0  0  0
    2.7646   -1.8376    0.4472 H   0  0  0  0  0  0  0  0  0  0  0  0
    1.0876   -2.4342    0.4517 H   0  0  0  0  0  0  0  0  0  0  0  0
   -0.8561   -0.6548   -0.0136 H   0  0  0  0  0  0  0  0  0  0  0  0
    3.6532    1.6304    1.9188 H   0  0  0  0  0  0  0  0  0  0  0  0
    6.1136    1.6179    1.9020 H   0  0  0  0  0  0  0  0  0  0  0  0
    6.0768   -0.1204   -2.0053 H   0  0  0  0  0  0  0  0  0  0  0  0
    3.6165   -0.1175   -1.9828 H   0  0  0  0  0  0  0  0  0  0  0  0
    8.5453    0.8558   -1.9586 H   0  0  0  0  0  0  0  0  0  0  0  0
    9.3257   -0.2635   -0.8157 H   0  0  0  0  0  0  0  0  0  0  0  0
    7.7769   -0.7033   -1.5748 H   0  0  0  0  0  0  0  0  0  0  0  0
    7.6935    1.7067    1.7989 H   0  0  0  0  0  0  0  0  0  0  0  0
    9.0874    0.6540    1.4569 H   0  0  0  0  0  0  0  0  0  0  0  0
    8.9452    2.2333    0.6482 H   0  0  0  0  0  0  0  0  0  0  0  0
    1.9282    3.6150    1.0630 H   0  0  0  0  0  0  0  0  0  0  0  0
    2.7539    3.3496   -0.4913 H   0  0  0  0  0  0  0  0  0  0  0  0
    1.0731    3.9346   -0.4651 H   0  0  0  0  0  0  0  0  0  0  0  0
   -2.1905    1.9024    0.0333 H   0  0  0  0  0  0  0  0  0  0  0  0
   -3.1915    3.3455   -1.4622 H   0  0  0  0  0  0  0  0  0  0  0  0
   -5.1787    4.7841   -1.4286 H   0  0  0  0  0  0  0  0  0  0  0  0
   -1.3889    5.7328    1.6097 H   0  0  0  0  0  0  0  0  0  0  0  0
   -5.4683    7.6162   -0.5040 H   0  0  0  0  0  0  0  0  0  0  0  0
   -2.3804    7.7594    2.7113 O   0  5  0  0  0  0  0  0  0  0  0  0
  1  2  1  0  0  0  0
  1 28  1  0  0  0  0
  1 29  1  0  0  0  0
  1 30  1  0  0  0  0
  2  6  1  0  0  0  0
  2  3  2  0  0  0  0
  3  4  1  0  0  0  0
  3 31  1  0  0  0  0
  4  5  2  0  0  0  0
  4 17  1  0  0  0  0
  5  6  1  0  0  0  0
  5 16  1  0  0  0  0
  6  7  1  0  0  0  0
  7 12  2  0  0  0  0
  7  8  1  0  0  0  0
  8  9  2  0  0  0  0
  8 32  1  0  0  0  0
  9 10  1  0  0  0  0
  9 33  1  0  0  0  0
 10 11  2  0  0  0  0
 10 13  1  0  0  0  0
 11 12  1  0  0  0  0
 11 34  1  0  0  0  0
 12 35  1  0  0  0  0
 13 14  1  0  0  0  0
 13 15  1  0  0  0  0
 14 36  1  0  0  0  0
 14 37  1  0  0  0  0
 14 38  1  0  0  0  0
 15 39  1  0  0  0  0
 15 40  1  0  0  0  0
 15 41  1  0  0  0  0
 16 42  1  0  0  0  0
 16 43  1  0  0  0  0
 16 44  1  0  0  0  0
 17 18  2  0  0  0  0
 17 45  1  0  0  0  0
 18 19  1  0  0  0  0
 19 24  2  0  0  0  0
 19 20  1  0  0  0  0
 20 21  2  0  0  0  0
 20 46  1  0  0  0  0
 21 22  1  0  0  0  0
 21 47  1  0  0  0  0
 22 23  2  0  0  0  0
 22 27  1  0  0  0  0
 23 24  1  0  0  0  0
 23 25  1  0  0  0  0
 24 48  1  0  0  0  0
 25 26  2  0  0  0  0
 25 50  1  0  0  0  0
 27 49  1  0  0  0  0
M  CHG  1  50  -1
M  END
$$$$
ZINC03889631
  -OEChem-08230709463D

 49 51  0     0  0  0  0  0  0999 V2000
   -0.8323   -0.4176    2.6066 C   0  0  0  0  0  0  0  0  0  0  0  0
    0.2784    0.3311    1.9161 C   0  0  0  0  0  0  0  0  0  0  0  0
    0.2172    1.6089    1.5033 C   0  0  0  0  0  0  0  0  0  0  0  0
    1.5163    1.9133    0.8910 C   0  0  0  0  0  0  0  0  0  0  0  0
    2.2655    0.7577    0.9929 C   0  0  0  0  0  0  0  0  0  0  0  0
    1.5077   -0.1809    1.6102 N   0  0  0  0  0  0  0  0  0  0  0  0
    1.9250   -1.4899    1.8938 C   0  0  0  0  0  0  0  0  0  0  0  0
    2.9659   -1.7085    2.7863 C   0  0  0  0  0  0  0  0  0  0  0  0
    3.3736   -2.9966    3.0693 C   0  0  0  0  0  0  0  0  0  0  0  0
    2.7493   -4.0738    2.4530 C   0  0  0  0  0  0  0  0  0  0  0  0
    1.7115   -3.8544    1.5562 C   0  0  0  0  0  0  0  0  0  0  0  0
    1.3008   -2.5663    1.2776 C   0  0  0  0  0  0  0  0  0  0  0  0
    3.1658   -5.3782    2.7350 N   0  0  0  0  0  0  0  0  0  0  0  0
    2.5077   -6.5140    2.0846 C   0  0  0  0  0  0  0  0  0  0  0  0
    4.2604   -5.6093    3.6809 C   0  0  0  0  0  0  0  0  0  0  0  0
    3.6788    0.5729    0.5036 C   0  0  0  0  0  0  0  0  0  0  0  0
    1.9335    3.1860    0.2923 C   0  0  0  0  0  0  0  0  0  0  0  0
    1.0596    4.1408    0.1117 N   0  0  0  0  0  0  0  0  0  0  0  0
   -0.2669    3.9018    0.3282 C   0  0  0  0  0  0  0  0  0  0  0  0
   -0.9565    2.9959   -0.4853 C   0  0  0  0  0  0  0  0  0  0  0  0
   -2.2814    2.7523   -0.2648 C   0  0  0  0  0  0  0  0  0  0  0  0
   -2.9529    3.4179    0.7666 C   0  0  0  0  0  0  0  0  0  0  0  0
   -2.2648    4.3281    1.5763 C   0  0  0  0  0  0  0  0  0  0  0  0
   -0.9384    4.5671    1.3599 C   0  0  0  0  0  0  0  0  0  0  0  0
   -4.3851    3.1599    1.0003 C   0  0  0  0  0  0  0  0  0  0  0  0
   -4.9682    3.7376    1.8963 O   0  0  0  0  0  0  0  0  0  0  0  0
   -1.4566   -0.9102    1.8611 H   0  0  0  0  0  0  0  0  0  0  0  0
   -0.4056   -1.1657    3.2748 H   0  0  0  0  0  0  0  0  0  0  0  0
   -1.4380    0.2814    3.1833 H   0  0  0  0  0  0  0  0  0  0  0  0
   -0.6244    2.2788    1.5991 H   0  0  0  0  0  0  0  0  0  0  0  0
    3.4541   -0.8709    3.2620 H   0  0  0  0  0  0  0  0  0  0  0  0
    4.1803   -3.1668    3.7669 H   0  0  0  0  0  0  0  0  0  0  0  0
    1.2257   -4.6916    1.0771 H   0  0  0  0  0  0  0  0  0  0  0  0
    0.4941   -2.3957    0.5801 H   0  0  0  0  0  0  0  0  0  0  0  0
    3.0216   -6.7463    1.1518 H   0  0  0  0  0  0  0  0  0  0  0  0
    2.5429   -7.3809    2.7444 H   0  0  0  0  0  0  0  0  0  0  0  0
    1.4689   -6.2599    1.8736 H   0  0  0  0  0  0  0  0  0  0  0  0
    3.9904   -5.2027    4.6555 H   0  0  0  0  0  0  0  0  0  0  0  0
    4.4421   -6.6803    3.7718 H   0  0  0  0  0  0  0  0  0  0  0  0
    5.1631   -5.1171    3.3193 H   0  0  0  0  0  0  0  0  0  0  0  0
    3.6635    0.1318   -0.4931 H   0  0  0  0  0  0  0  0  0  0  0  0
    4.1794    1.5403    0.4651 H   0  0  0  0  0  0  0  0  0  0  0  0
    4.2157   -0.0872    1.1848 H   0  0  0  0  0  0  0  0  0  0  0  0
    2.9628    3.3339    0.0007 H   0  0  0  0  0  0  0  0  0  0  0  0
   -0.4393    2.4857   -1.2844 H   0  0  0  0  0  0  0  0  0  0  0  0
   -2.8125    2.0495   -0.8896 H   0  0  0  0  0  0  0  0  0  0  0  0
   -2.7830    4.8413    2.3729 H   0  0  0  0  0  0  0  0  0  0  0  0
   -0.4072    5.2694    1.9852 H   0  0  0  0  0  0  0  0  0  0  0  0
   -5.0479    2.2832    0.2203 O   0  5  0  0  0  0  0  0  0  0  0  0
  1  2  1  0  0  0  0
  1 27  1  0  0  0  0
  1 28  1  0  0  0  0
  1 29  1  0  0  0  0
  2  6  1  0  0  0  0
  2  3  2  0  0  0  0
  3  4  1  0  0  0  0
  3 30  1  0  0  0  0
  4  5  2  0  0  0  0
  4 17  1  0  0  0  0
  5  6  1  0  0  0  0
  5 16  1  0  0  0  0
  6  7  1  0  0  0  0
  7 12  2  0  0  0  0
  7  8  1  0  0  0  0
  8  9  2  0  0  0  0
  8 31  1  0  0  0  0
  9 10  1  0  0  0  0
  9 32  1  0  0  0  0
 10 11  2  0  0  0  0
 10 13  1  0  0  0  0
 11 12  1  0  0  0  0
 11 33  1  0  0  0  0
 12 34  1  0  0  0  0
 13 14  1  0  0  0  0
 13 15  1  0  0  0  0
 14 35  1  0  0  0  0
 14 36  1  0  0  0  0
 14 37  1  0  0  0  0
 15 38  1  0  0  0  0
 15 39  1  0  0  0  0
 15 40  1  0  0  0  0
 16 41  1  0  0  0  0
 16 42  1  0  0  0  0
 16 43  1  0  0  0  0
 17 18  2  0  0  0  0
 17 44  1  0  0  0  0
 18 19  1  0  0  0  0
 19 24  2  0  0  0  0
 19 20  1  0  0  0  0
 20 21  2  0  0  0  0
 20 45  1  0  0  0  0
 21 22  1  0  0  0  0
 21 46  1  0  0  0  0
 22 23  2  0  0  0  0
 22 25  1  0  0  0  0
 23 24  1  0  0  0  0
 23 47  1  0  0  0  0
 24 48  1  0  0  0  0
 25 26  2  0  0  0  0
 25 49  1  0  0  0  0
M  CHG  1  49  -1
M  END
$$$$
ZINC03889643
  -OEChem-08230709463D

 45 47  0     0  0  0  0  0  0999 V2000
    5.5162   -1.4377   -4.3774 C   0  0  0  0  0  0  0  0  0  0  0  0
    4.4974   -1.4010   -3.2676 C   0  0  0  0  0  0  0  0  0  0  0  0
    3.8601   -2.4695   -2.7599 C   0  0  0  0  0  0  0  0  0  0  0  0
    2.9662   -1.9647   -1.7098 C   0  0  0  0  0  0  0  0  0  0  0  0
    3.1568   -0.5979   -1.6713 C   0  0  0  0  0  0  0  0  0  0  0  0
    4.0790   -0.2757   -2.6127 N   0  0  0  0  0  0  0  0  0  0  0  0
    4.5333    1.0130   -2.8740 C   0  0  0  0  0  0  0  0  0  0  0  0
    5.0694    1.9349   -1.9854 C   0  0  0  0  0  0  0  0  0  0  0  0
    5.4638    3.2104   -2.5305 C   0  0  0  0  0  0  0  0  0  0  0  0
    5.2788    3.3977   -3.8513 C   0  0  0  0  0  0  0  0  0  0  0  0
    4.5741    1.8527   -4.3878 S   0  0  0  0  0  0  0  0  0  0  0  0
    5.5962    4.6179   -4.6767 C   0  0  0  0  0  0  0  0  0  0  0  0
    6.0579    4.2874   -1.6597 C   0  0  0  0  0  0  0  0  0  0  0  0
    5.2239    1.6336   -0.5940 C   0  0  0  0  0  0  0  0  0  0  0  0
    5.3464    1.3945    0.5098 N   0  0  0  0  0  0  0  0  0  0  0  0
    2.4623    0.3672   -0.7454 C   0  0  0  0  0  0  0  0  0  0  0  0
    2.0596   -2.7533   -0.8683 C   0  0  0  0  0  0  0  0  0  0  0  0
    1.8646   -4.0197   -1.1259 N   0  0  0  0  0  0  0  0  0  0  0  0
    2.3777   -4.5714   -2.2641 C   0  0  0  0  0  0  0  0  0  0  0  0
    3.3754   -5.5490   -2.1796 C   0  0  0  0  0  0  0  0  0  0  0  0
    3.8888   -6.1004   -3.3179 C   0  0  0  0  0  0  0  0  0  0  0  0
    3.4174   -5.6882   -4.5691 C   0  0  0  0  0  0  0  0  0  0  0  0
    2.4199   -4.7107   -4.6537 C   0  0  0  0  0  0  0  0  0  0  0  0
    1.9064   -4.1592   -3.5155 C   0  0  0  0  0  0  0  0  0  0  0  0
    3.9721   -6.2833   -5.7982 C   0  0  0  0  0  0  0  0  0  0  0  0
    4.8387   -7.1320   -5.7248 O   0  0  0  0  0  0  0  0  0  0  0  0
    6.4999   -1.6540   -3.9605 H   0  0  0  0  0  0  0  0  0  0  0  0
    5.2461   -2.2143   -5.0930 H   0  0  0  0  0  0  0  0  0  0  0  0
    5.5396   -0.4715   -4.8813 H   0  0  0  0  0  0  0  0  0  0  0  0
    3.9800   -3.4982   -3.0659 H   0  0  0  0  0  0  0  0  0  0  0  0
    6.6138    4.5428   -5.0599 H   0  0  0  0  0  0  0  0  0  0  0  0
    4.8978    4.6840   -5.5110 H   0  0  0  0  0  0  0  0  0  0  0  0
    5.5064    5.5096   -4.0563 H   0  0  0  0  0  0  0  0  0  0  0  0
    7.1420    4.1770   -1.6340 H   0  0  0  0  0  0  0  0  0  0  0  0
    5.8019    5.2658   -2.0663 H   0  0  0  0  0  0  0  0  0  0  0  0
    5.6595    4.1984   -0.6491 H   0  0  0  0  0  0  0  0  0  0  0  0
    2.9925    0.4030    0.2063 H   0  0  0  0  0  0  0  0  0  0  0  0
    2.4548    1.3603   -1.1947 H   0  0  0  0  0  0  0  0  0  0  0  0
    1.4373    0.0364   -0.5780 H   0  0  0  0  0  0  0  0  0  0  0  0
    1.5532   -2.2875   -0.0358 H   0  0  0  0  0  0  0  0  0  0  0  0
    3.7390   -5.8675   -1.2138 H   0  0  0  0  0  0  0  0  0  0  0  0
    4.6619   -6.8517   -3.2529 H   0  0  0  0  0  0  0  0  0  0  0  0
    2.0559   -4.3928   -5.6196 H   0  0  0  0  0  0  0  0  0  0  0  0
    1.1362   -3.4050   -3.5808 H   0  0  0  0  0  0  0  0  0  0  0  0
    3.5181   -5.8863   -7.0034 O   0  5  0  0  0  0  0  0  0  0  0  0
  1  2  1  0  0  0  0
  1 27  1  0  0  0  0
  1 28  1  0  0  0  0
  1 29  1  0  0  0  0
  2  6  1  0  0  0  0
  2  3  2  0  0  0  0
  3  4  1  0  0  0  0
  3 30  1  0  0  0  0
  4  5  2  0  0  0  0
  4 17  1  0  0  0  0
  5  6  1  0  0  0  0
  5 16  1  0  0  0  0
  6  7  1  0  0  0  0
  7 11  1  0  0  0  0
  7  8  2  0  0  0  0
  8  9  1  0  0  0  0
  8 14  1  0  0  0  0
  9 10  2  0  0  0  0
  9 13  1  0  0  0  0
 10 11  1  0  0  0  0
 10 12  1  0  0  0  0
 12 31  1  0  0  0  0
 12 32  1  0  0  0  0
 12 33  1  0  0  0  0
 13 34  1  0  0  0  0
 13 35  1  0  0  0  0
 13 36  1  0  0  0  0
 14 15  3  0  0  0  0
 16 37  1  0  0  0  0
 16 38  1  0  0  0  0
 16 39  1  0  0  0  0
 17 18  2  0  0  0  0
 17 40  1  0  0  0  0
 18 19  1  0  0  0  0
 19 24  2  0  0  0  0
 19 20  1  0  0  0  0
 20 21  2  0  0  0  0
 20 41  1  0  0  0  0
 21 22  1  0  0  0  0
 21 42  1  0  0  0  0
 22 23  2  0  0  0  0
 22 25  1  0  0  0  0
 23 24  1  0  0  0  0
 23 43  1  0  0  0  0
 24 44  1  0  0  0  0
 25 26  2  0  0  0  0
 25 45  1  0  0  0  0
M  CHG  1  45  -1
M  END
$$$$
ZINC03889691
  -OEChem-08230709463D

 57 60  0     0  0  0  0  0  0999 V2000
    0.8302    2.0097   -0.7151 C   0  0  0  0  0  0  0  0  0  0  0  0
    1.0598    3.3881   -0.1508 C   0  0  0  0  0  0  0  0  0  0  0  0
    0.0231    4.2934   -0.1039 C   0  0  0  0  0  0  0  0  0  0  0  0
    0.2356    5.5697    0.4244 C   0  0  0  0  0  0  0  0  0  0  0  0
    1.5034    5.9259    0.8936 C   0  0  0  0  0  0  0  0  0  0  0  0
    2.5363    5.0175    0.8382 C   0  0  0  0  0  0  0  0  0  0  0  0
    2.3196    3.7463    0.3165 C   0  0  0  0  0  0  0  0  0  0  0  0
    3.3705    2.8267    0.2622 N   0  0  0  0  0  0  0  0  0  0  0  0
    4.2289    2.6792   -0.7916 C   0  0  0  0  0  0  0  0  0  0  0  0
    5.1136    1.7097   -0.5007 C   0  0  0  0  0  0  0  0  0  0  0  0
    4.7660    1.2136    0.8362 C   0  0  0  0  0  0  0  0  0  0  0  0
    3.6846    1.9451    1.2461 C   0  0  0  0  0  0  0  0  0  0  0  0
    2.9658    1.7973    2.5624 C   0  0  0  0  0  0  0  0  0  0  0  0
    5.4437    0.1460    1.5846 C   0  0  0  0  0  0  0  0  0  0  0  0
    6.3544   -0.5830    1.0006 N   0  0  0  0  0  0  0  0  0  0  0  0
    6.5652   -0.4651   -0.3469 C   0  0  0  0  0  0  0  0  0  0  0  0
    5.5641   -0.8371   -1.2473 C   0  0  0  0  0  0  0  0  0  0  0  0
    5.7779   -0.7122   -2.6031 C   0  0  0  0  0  0  0  0  0  0  0  0
    6.9922   -0.2270   -3.0752 C   0  0  0  0  0  0  0  0  0  0  0  0
    7.9930    0.1389   -2.1821 C   0  0  0  0  0  0  0  0  0  0  0  0
    7.7840    0.0220   -0.8249 C   0  0  0  0  0  0  0  0  0  0  0  0
    7.2075   -0.1072   -4.4500 N   0  0  0  0  0  0  0  0  0  0  0  0
    7.5733    1.2710   -4.8079 C   0  0  0  0  0  0  0  0  0  0  0  0
    7.8577    1.3440   -6.3105 C   0  0  0  0  0  0  0  0  0  0  0  0
    6.7109    0.8839   -7.0305 O   0  0  0  0  0  0  0  0  0  0  0  0
    6.3270   -0.4552   -6.7069 C   0  0  0  0  0  0  0  0  0  0  0  0
    6.0271   -0.5464   -5.2084 C   0  0  0  0  0  0  0  0  0  0  0  0
    4.1922    3.4769   -2.0696 C   0  0  0  0  0  0  0  0  0  0  0  0
   -0.8736    6.5404    0.4816 C   0  0  0  0  0  0  0  0  0  0  0  0
   -1.9749    6.2292    0.0734 O   0  0  0  0  0  0  0  0  0  0  0  0
    0.5247    1.3358    0.0852 H   0  0  0  0  0  0  0  0  0  0  0  0
    0.0475    2.0529   -1.4724 H   0  0  0  0  0  0  0  0  0  0  0  0
    1.7525    1.6436   -1.1662 H   0  0  0  0  0  0  0  0  0  0  0  0
   -0.9541    4.0159   -0.4707 H   0  0  0  0  0  0  0  0  0  0  0  0
    1.6722    6.9124    1.2995 H   0  0  0  0  0  0  0  0  0  0  0  0
    3.5160    5.2920    1.2005 H   0  0  0  0  0  0  0  0  0  0  0  0
    5.9196    1.3611   -1.1294 H   0  0  0  0  0  0  0  0  0  0  0  0
    2.1097    1.1345    2.4364 H   0  0  0  0  0  0  0  0  0  0  0  0
    3.6460    1.3756    3.3024 H   0  0  0  0  0  0  0  0  0  0  0  0
    2.6219    2.7748    2.9003 H   0  0  0  0  0  0  0  0  0  0  0  0
    5.1878   -0.0352    2.6180 H   0  0  0  0  0  0  0  0  0  0  0  0
    4.6223   -1.2183   -0.8813 H   0  0  0  0  0  0  0  0  0  0  0  0
    5.0026   -0.9951   -3.2997 H   0  0  0  0  0  0  0  0  0  0  0  0
    8.9351    0.5155   -2.5523 H   0  0  0  0  0  0  0  0  0  0  0  0
    8.5616    0.3071   -0.1316 H   0  0  0  0  0  0  0  0  0  0  0  0
    6.7508    1.9419   -4.5602 H   0  0  0  0  0  0  0  0  0  0  0  0
    8.4644    1.5666   -4.2541 H   0  0  0  0  0  0  0  0  0  0  0  0
    8.7145    0.7141   -6.5498 H   0  0  0  0  0  0  0  0  0  0  0  0
    8.0742    2.3748   -6.5910 H   0  0  0  0  0  0  0  0  0  0  0  0
    7.1393   -1.1374   -6.9577 H   0  0  0  0  0  0  0  0  0  0  0  0
    5.4362   -0.7262   -7.2735 H   0  0  0  0  0  0  0  0  0  0  0  0
    5.7895   -1.5776   -4.9468 H   0  0  0  0  0  0  0  0  0  0  0  0
    5.1797    0.0950   -4.9664 H   0  0  0  0  0  0  0  0  0  0  0  0
    4.8141    4.3655   -1.9614 H   0  0  0  0  0  0  0  0  0  0  0  0
    4.5702    2.8666   -2.8898 H   0  0  0  0  0  0  0  0  0  0  0  0
    3.1657    3.7755   -2.2822 H   0  0  0  0  0  0  0  0  0  0  0  0
   -0.6656    7.7722    0.9866 O   0  5  0  0  0  0  0  0  0  0  0  0
  1  2  1  0  0  0  0
  1 31  1  0  0  0  0
  1 32  1  0  0  0  0
  1 33  1  0  0  0  0
  2  7  2  0  0  0  0
  2  3  1  0  0  0  0
  3  4  2  0  0  0  0
  3 34  1  0  0  0  0
  4  5  1  0  0  0  0
  4 29  1  0  0  0  0
  5  6  2  0  0  0  0
  5 35  1  0  0  0  0
  6  7  1  0  0  0  0
  6 36  1  0  0  0  0
  7  8  1  0  0  0  0
  8 12  1  0  0  0  0
  8  9  1  0  0  0  0
  9 10  2  0  0  0  0
  9 28  1  0  0  0  0
 10 11  1  0  0  0  0
 10 37  1  0  0  0  0
 11 12  2  0  0  0  0
 11 14  1  0  0  0  0
 12 13  1  0  0  0  0
 13 38  1  0  0  0  0
 13 39  1  0  0  0  0
 13 40  1  0  0  0  0
 14 15  2  0  0  0  0
 14 41  1  0  0  0  0
 15 16  1  0  0  0  0
 16 21  2  0  0  0  0
 16 17  1  0  0  0  0
 17 18  2  0  0  0  0
 17 42  1  0  0  0  0
 18 19  1  0  0  0  0
 18 43  1  0  0  0  0
 19 20  2  0  0  0  0
 19 22  1  0  0  0  0
 20 21  1  0  0  0  0
 20 44  1  0  0  0  0
 21 45  1  0  0  0  0
 22 27  1  0  0  0  0
 22 23  1  0  0  0  0
 23 24  1  0  0  0  0
 23 46  1  0  0  0  0
 23 47  1  0  0  0  0
 24 25  1  0  0  0  0
 24 48  1  0  0  0  0
 24 49  1  0  0  0  0
 25 26  1  0  0  0  0
 26 27  1  0  0  0  0
 26 50  1  0  0  0  0
 26 51  1  0  0  0  0
 27 52  1  0  0  0  0
 27 53  1  0  0  0  0
 28 54  1  0  0  0  0
 28 55  1  0  0  0  0
 28 56  1  0  0  0  0
 29 30  2  0  0  0  0
 29 57  1  0  0  0  0
M  CHG  1  57  -1
M  END
$$$$
ZINC03889831
  -OEChem-08230709463D

 53 55  0     0  0  0  0  0  0999 V2000
   -4.3812    0.3267   -1.5428 C   0  0  0  0  0  0  0  0  0  0  0  0
   -4.2009   -1.1693   -1.5678 C   0  0  0  0  0  0  0  0  0  0  0  0
   -5.1964   -2.0694   -1.3447 C   0  0  0  0  0  0  0  0  0  0  0  0
   -4.5769   -3.4127   -1.4663 C   0  0  0  0  0  0  0  0  0  0  0  0
   -5.1806   -4.6274   -1.3250 C   0  0  0  0  0  0  0  0  0  0  0  0
   -4.3717   -5.8525   -1.3164 C   0  0  0  0  0  0  0  0  0  0  0  0
   -4.8424   -7.0082   -1.9532 C   0  0  0  0  0  0  0  0  0  0  0  0
   -4.0829   -8.1495   -1.9495 C   0  0  0  0  0  0  0  0  0  0  0  0
   -2.8450   -8.1641   -1.3005 C   0  0  0  0  0  0  0  0  0  0  0  0
   -2.3766   -7.0138   -0.6593 C   0  0  0  0  0  0  0  0  0  0  0  0
   -3.1307   -5.8689   -0.6664 C   0  0  0  0  0  0  0  0  0  0  0  0
   -2.0306   -9.3966   -1.2926 C   0  0  0  0  0  0  0  0  0  0  0  0
   -0.9545   -9.4099   -0.7292 O   0  0  0  0  0  0  0  0  0  0  0  0
   -3.1602   -3.1368   -1.7805 C   0  0  0  0  0  0  0  0  0  0  0  0
   -2.2854   -3.9615   -1.9686 O   0  0  0  0  0  0  0  0  0  0  0  0
   -3.0219   -1.7988   -1.8165 N   0  0  0  0  0  0  0  0  0  0  0  0
   -1.7607   -1.1074   -2.0950 C   0  0  0  0  0  0  0  0  0  0  0  0
   -1.0173   -0.8540   -0.7819 C   0  0  0  0  0  0  0  0  0  0  0  0
    0.2801   -0.1428   -1.0684 C   0  0  0  0  0  0  0  0  0  0  0  0
    0.2963    1.1486   -0.9816 C   0  0  0  0  0  0  0  0  0  0  0  0
    1.5077    1.9939   -1.2463 C   0  0  0  0  0  0  0  0  0  0  0  0
    2.7711    1.1315   -1.2064 C   0  0  0  0  0  0  0  0  0  0  0  0
    2.5450   -0.1016   -2.0902 C   0  0  0  0  0  0  0  0  0  0  0  0
    1.4729   -0.9759   -1.4360 C   0  0  0  0  0  0  0  0  0  0  0  0
   -6.6011   -1.7718   -1.0438 C   0  0  0  0  0  0  0  0  0  0  0  0
   -6.9763   -0.6173   -0.9729 O   0  0  0  0  0  0  0  0  0  0  0  0
   -7.4761   -2.7785   -0.8459 O   0  0  0  0  0  0  0  0  0  0  0  0
   -8.8496   -2.4100   -0.5524 C   0  0  0  0  0  0  0  0  0  0  0  0
   -4.6417    0.6779   -2.5413 H   0  0  0  0  0  0  0  0  0  0  0  0
   -5.1796    0.5849   -0.8471 H   0  0  0  0  0  0  0  0  0  0  0  0
   -3.4528    0.7993   -1.2221 H   0  0  0  0  0  0  0  0  0  0  0  0
   -6.2537   -4.6881   -1.2195 H   0  0  0  0  0  0  0  0  0  0  0  0
   -5.8009   -6.9986   -2.4509 H   0  0  0  0  0  0  0  0  0  0  0  0
   -4.4435   -9.0394   -2.4441 H   0  0  0  0  0  0  0  0  0  0  0  0
   -1.4199   -7.0268   -0.1584 H   0  0  0  0  0  0  0  0  0  0  0  0
   -2.7681   -4.9801   -0.1715 H   0  0  0  0  0  0  0  0  0  0  0  0
   -1.9683   -0.1559   -2.5844 H   0  0  0  0  0  0  0  0  0  0  0  0
   -1.1442   -1.7251   -2.7481 H   0  0  0  0  0  0  0  0  0  0  0  0
   -0.8097   -1.8055   -0.2925 H   0  0  0  0  0  0  0  0  0  0  0  0
   -1.6337   -0.2363   -0.1288 H   0  0  0  0  0  0  0  0  0  0  0  0
   -0.6201    1.6492   -0.7058 H   0  0  0  0  0  0  0  0  0  0  0  0
    1.4173    2.4571   -2.2289 H   0  0  0  0  0  0  0  0  0  0  0  0
    1.5777    2.7728   -0.4870 H   0  0  0  0  0  0  0  0  0  0  0  0
    2.9676    0.8167   -0.1815 H   0  0  0  0  0  0  0  0  0  0  0  0
    3.6200    1.7020   -1.5835 H   0  0  0  0  0  0  0  0  0  0  0  0
    3.4740   -0.6650   -2.1778 H   0  0  0  0  0  0  0  0  0  0  0  0
    2.2104    0.2094   -3.0799 H   0  0  0  0  0  0  0  0  0  0  0  0
    1.8821   -1.4375   -0.5373 H   0  0  0  0  0  0  0  0  0  0  0  0
    1.1682   -1.7544   -2.1353 H   0  0  0  0  0  0  0  0  0  0  0  0
   -9.2546   -1.8284   -1.3805 H   0  0  0  0  0  0  0  0  0  0  0  0
   -9.4464   -3.3117   -0.4155 H   0  0  0  0  0  0  0  0  0  0  0  0
   -8.8787   -1.8131    0.3593 H   0  0  0  0  0  0  0  0  0  0  0  0
   -2.4813  -10.5058   -1.9104 O   0  5  0  0  0  0  0  0  0  0  0  0
  1  2  1  0  0  0  0
  1 29  1  0  0  0  0
  1 30  1  0  0  0  0
  1 31  1  0  0  0  0
  2 16  1  0  0  0  0
  2  3  2  0  0  0  0
  3  4  1  0  0  0  0
  3 25  1  0  0  0  0
  4  5  2  0  0  0  0
  4 14  1  0  0  0  0
  5  6  1  0  0  0  0
  5 32  1  0  0  0  0
  6 11  2  0  0  0  0
  6  7  1  0  0  0  0
  7  8  2  0  0  0  0
  7 33  1  0  0  0  0
  8  9  1  0  0  0  0
  8 34  1  0  0  0  0
  9 10  2  0  0  0  0
  9 12  1  0  0  0  0
 10 11  1  0  0  0  0
 10 35  1  0  0  0  0
 11 36  1  0  0  0  0
 12 13  2  0  0  0  0
 12 53  1  0  0  0  0
 14 15  2  0  0  0  0
 14 16  1  0  0  0  0
 16 17  1  0  0  0  0
 17 18  1  0  0  0  0
 17 37  1  0  0  0  0
 17 38  1  0  0  0  0
 18 19  1  0  0  0  0
 18 39  1  0  0  0  0
 18 40  1  0  0  0  0
 19 24  1  0  0  0  0
 19 20  2  0  0  0  0
 20 21  1  0  0  0  0
 20 41  1  0  0  0  0
 21 22  1  0  0  0  0
 21 42  1  0  0  0  0
 21 43  1  0  0  0  0
 22 23  1  0  0  0  0
 22 44  1  0  0  0  0
 22 45  1  0  0  0  0
 23 24  1  0  0  0  0
 23 46  1  0  0  0  0
 23 47  1  0  0  0  0
 24 48  1  0  0  0  0
 24 49  1  0  0  0  0
 25 26  2  0  0  0  0
 25 27  1  0  0  0  0
 27 28  1  0  0  0  0
 28 50  1  0  0  0  0
 28 51  1  0  0  0  0
 28 52  1  0  0  0  0
M  CHG  1  53  -1
M  END
$$$$
ZINC03890068
  -OEChem-08230709463D

 48 50  0     1  0  0  0  0  0999 V2000
   -2.7356   -2.2491    1.4604 C   0  0  0  0  0  0  0  0  0  0  0  0
   -1.5485   -1.2839    1.4535 C   0  0  0  0  0  0  0  0  0  0  0  0
   -1.1671   -0.9548    0.0088 C   0  0  0  0  0  0  0  0  0  0  0  0
    0.0021   -0.0041    0.0020 C   0  0  0  0  0  0  0  0  0  0  0  0
    1.3147   -0.2962   -0.0121 C   0  0  0  0  0  0  0  0  0  0  0  0
    2.2375    0.8145   -0.0149 C   0  0  0  0  0  0  0  0  0  0  0  0
    1.6809    2.0891   -0.0028 C   0  0  0  0  0  0  0  0  0  0  0  0
   -0.0221    1.7765    0.0118 S   0  0  0  0  0  0  0  0  0  0  0  0
    2.3318    3.3129   -0.0024 N   0  0  0  0  0  0  0  0  0  0  0  0
    1.6178    4.4559    0.0110 C   0  0  0  0  0  0  0  0  0  0  0  0
    0.4058    4.4137    0.0228 O   0  0  0  0  0  0  0  0  0  0  0  0
    2.3254    5.7864    0.0114 C   0  0  1  0  0  0  0  0  0  0  0  0
    2.9843    5.8690   -0.8529 H   0  0  0  0  0  0  0  0  0  0  0  0
    1.2923    6.9578    0.0282 C   0  0  1  0  0  0  0  0  0  0  0  0
    0.4442    6.8633   -0.6499 H   0  0  0  0  0  0  0  0  0  0  0  0
    0.9629    7.0237    1.5645 C   0  0  0  0  0  0  0  0  0  0  0  0
    2.4661    7.2437    1.9705 C   0  0  1  0  0  0  0  0  0  0  0  0
    2.6664    7.4188    3.0275 H   0  0  0  0  0  0  0  0  0  0  0  0
    3.1200    5.9800    1.3262 C   0  0  2  0  0  0  0  0  0  0  0  0
    3.0015    5.1134    1.9766 H   0  0  0  0  0  0  0  0  0  0  0  0
    4.5771    6.2286    1.0328 C   0  0  0  0  0  0  0  0  0  0  0  0
    4.9676    6.2534   -0.1103 O   0  0  0  0  0  0  0  0  0  0  0  0
    2.8316    8.3829    1.0111 C   0  0  0  0  0  0  0  0  0  0  0  0
    2.1552    8.2182   -0.1080 C   0  0  0  0  0  0  0  0  0  0  0  0
    3.6873    0.6090   -0.0294 C   0  0  0  0  0  0  0  0  0  0  0  0
    4.4373    1.5667   -0.0319 O   0  0  0  0  0  0  0  0  0  0  0  0
    4.1910   -0.6422   -0.0400 O   0  0  0  0  0  0  0  0  0  0  0  0
    5.6373   -0.7704   -0.0541 C   0  0  0  0  0  0  0  0  0  0  0  0
    6.0179   -2.2522   -0.0646 C   0  0  0  0  0  0  0  0  0  0  0  0
   -2.4611   -3.1663    0.9392 H   0  0  0  0  0  0  0  0  0  0  0  0
   -3.0073   -2.4835    2.4896 H   0  0  0  0  0  0  0  0  0  0  0  0
   -3.5840   -1.7853    0.9573 H   0  0  0  0  0  0  0  0  0  0  0  0
   -0.7001   -1.7477    1.9566 H   0  0  0  0  0  0  0  0  0  0  0  0
   -1.8230   -0.3667    1.9747 H   0  0  0  0  0  0  0  0  0  0  0  0
   -2.0155   -0.4910   -0.4943 H   0  0  0  0  0  0  0  0  0  0  0  0
   -0.8927   -1.8720   -0.5124 H   0  0  0  0  0  0  0  0  0  0  0  0
    1.6639   -1.3181   -0.0213 H   0  0  0  0  0  0  0  0  0  0  0  0
    3.3012    3.3467   -0.0118 H   0  0  0  0  0  0  0  0  0  0  0  0
    0.3324    7.8753    1.8202 H   0  0  0  0  0  0  0  0  0  0  0  0
    0.5604    6.0853    1.9459 H   0  0  0  0  0  0  0  0  0  0  0  0
    3.5255    9.1844    1.2175 H   0  0  0  0  0  0  0  0  0  0  0  0
    2.2014    8.8614   -0.9744 H   0  0  0  0  0  0  0  0  0  0  0  0
    6.0363   -0.2864   -0.9455 H   0  0  0  0  0  0  0  0  0  0  0  0
    6.0529   -0.2948    0.8343 H   0  0  0  0  0  0  0  0  0  0  0  0
    7.1036   -2.3485   -0.0752 H   0  0  0  0  0  0  0  0  0  0  0  0
    5.6189   -2.7362    0.8269 H   0  0  0  0  0  0  0  0  0  0  0  0
    5.6023   -2.7278   -0.9530 H   0  0  0  0  0  0  0  0  0  0  0  0
    5.4412    6.4225    2.0415 O   0  5  0  0  0  0  0  0  0  0  0  0
  1  2  1  0  0  0  0
  1 30  1  0  0  0  0
  1 31  1  0  0  0  0
  1 32  1  0  0  0  0
  2  3  1  0  0  0  0
  2 33  1  0  0  0  0
  2 34  1  0  0  0  0
  3  4  1  0  0  0  0
  3 35  1  0  0  0  0
  3 36  1  0  0  0  0
  4  8  1  0  0  0  0
  4  5  2  0  0  0  0
  5  6  1  0  0  0  0
  5 37  1  0  0  0  0
  6  7  2  0  0  0  0
  6 25  1  0  0  0  0
  7  8  1  0  0  0  0
  7  9  1  0  0  0  0
  9 10  1  0  0  0  0
  9 38  1  0  0  0  0
 10 11  2  0  0  0  0
 10 12  1  0  0  0  0
 12 13  1  0  0  0  0
 12 19  1  0  0  0  0
 12 14  1  0  0  0  0
 14 15  1  0  0  0  0
 14 24  1  0  0  0  0
 14 16  1  0  0  0  0
 16 17  1  0  0  0  0
 16 39  1  0  0  0  0
 16 40  1  0  0  0  0
 17 18  1  0  0  0  0
 17 19  1  0  0  0  0
 17 23  1  0  0  0  0
 19 20  1  0  0  0  0
 19 21  1  0  0  0  0
 21 22  2  0  0  0  0
 21 48  1  0  0  0  0
 23 24  2  0  0  0  0
 23 41  1  0  0  0  0
 24 42  1  0  0  0  0
 25 26  2  0  0  0  0
 25 27  1  0  0  0  0
 27 28  1  0  0  0  0
 28 29  1  0  0  0  0
 28 43  1  0  0  0  0
 28 44  1  0  0  0  0
 29 45  1  0  0  0  0
 29 46  1  0  0  0  0
 29 47  1  0  0  0  0
M  CHG  1  48  -1
M  END
$$$$
ZINC03890447
  -OEChem-08230709463D

 46 47  0     0  0  0  0  0  0999 V2000
  -10.2844    2.2682    0.0636 C   0  0  0  0  0  0  0  0  0  0  0  0
   -8.8360    1.8521    0.0541 C   0  0  0  0  0  0  0  0  0  0  0  0
   -7.9562    2.3978    0.9719 C   0  0  0  0  0  0  0  0  0  0  0  0
   -6.6302    2.0164    0.9717 C   0  0  0  0  0  0  0  0  0  0  0  0
   -6.1751    1.0872    0.0369 C   0  0  0  0  0  0  0  0  0  0  0  0
   -7.0662    0.5407   -0.8854 C   0  0  0  0  0  0  0  0  0  0  0  0
   -8.3915    0.9257   -0.8719 C   0  0  0  0  0  0  0  0  0  0  0  0
   -9.3561    0.3360   -1.8683 C   0  0  0  0  0  0  0  0  0  0  0  0
   -4.7506    0.6775    0.0279 C   0  0  0  0  0  0  0  0  0  0  0  0
   -4.3857   -0.6300    0.0196 C   0  0  0  0  0  0  0  0  0  0  0  0
   -2.6066   -0.5588    0.0120 S   0  0  0  0  0  0  0  0  0  0  0  0
   -2.3811    1.1574    0.0196 C   0  0  0  0  0  0  0  0  0  0  0  0
   -3.6778    1.6541    0.0341 C   0  0  0  0  0  0  0  0  0  0  0  0
   -3.9488    3.0915    0.0504 C   0  0  0  0  0  0  0  0  0  0  0  0
   -4.0696    3.6996   -0.9963 O   0  0  0  0  0  0  0  0  0  0  0  0
   -4.0646    3.7428    1.2260 O   0  0  0  0  0  0  0  0  0  0  0  0
   -4.3338    5.1684    1.1661 C   0  0  0  0  0  0  0  0  0  0  0  0
   -1.1906    1.8665    0.0178 N   0  0  0  0  0  0  0  0  0  0  0  0
   -0.0144    1.2086    0.0087 C   0  0  0  0  0  0  0  0  0  0  0  0
    0.0021   -0.0041    0.0020 O   0  0  0  0  0  0  0  0  0  0  0  0
    1.2803    1.9798    0.0005 C   0  0  0  0  0  0  0  0  0  0  0  0
    2.4566    1.0015   -0.0160 C   0  0  0  0  0  0  0  0  0  0  0  0
    3.7710    1.7844   -0.0244 C   0  0  0  0  0  0  0  0  0  0  0  0
    4.9296    0.8208   -0.0406 C   0  0  0  0  0  0  0  0  0  0  0  0
    4.7250   -0.3700   -0.0450 O   0  0  0  0  0  0  0  0  0  0  0  0
  -10.8476    1.6085    0.7235 H   0  0  0  0  0  0  0  0  0  0  0  0
  -10.3651    3.2948    0.4209 H   0  0  0  0  0  0  0  0  0  0  0  0
  -10.6880    2.2024   -0.9468 H   0  0  0  0  0  0  0  0  0  0  0  0
   -8.3090    3.1205    1.6928 H   0  0  0  0  0  0  0  0  0  0  0  0
   -5.9453    2.4399    1.6913 H   0  0  0  0  0  0  0  0  0  0  0  0
   -6.7201   -0.1821   -1.6093 H   0  0  0  0  0  0  0  0  0  0  0  0
   -9.8028   -0.5666   -1.4511 H   0  0  0  0  0  0  0  0  0  0  0  0
  -10.1398    1.0609   -2.0883 H   0  0  0  0  0  0  0  0  0  0  0  0
   -8.8235    0.0869   -2.7861 H   0  0  0  0  0  0  0  0  0  0  0  0
   -5.0214   -1.5030    0.0178 H   0  0  0  0  0  0  0  0  0  0  0  0
   -3.5256    5.6687    0.6326 H   0  0  0  0  0  0  0  0  0  0  0  0
   -5.2747    5.3388    0.6430 H   0  0  0  0  0  0  0  0  0  0  0  0
   -4.4031    5.5679    2.1779 H   0  0  0  0  0  0  0  0  0  0  0  0
   -1.2037    2.8364    0.0232 H   0  0  0  0  0  0  0  0  0  0  0  0
    1.3211    2.6119   -0.8866 H   0  0  0  0  0  0  0  0  0  0  0  0
    1.3381    2.6024    0.8933 H   0  0  0  0  0  0  0  0  0  0  0  0
    2.4158    0.3693    0.8710 H   0  0  0  0  0  0  0  0  0  0  0  0
    2.3988    0.3789   -0.9088 H   0  0  0  0  0  0  0  0  0  0  0  0
    3.8118    2.4166   -0.9114 H   0  0  0  0  0  0  0  0  0  0  0  0
    3.8288    2.4070    0.8685 H   0  0  0  0  0  0  0  0  0  0  0  0
    6.1889    1.2854   -0.0501 O   0  5  0  0  0  0  0  0  0  0  0  0
  1  2  1  0  0  0  0
  1 26  1  0  0  0  0
  1 27  1  0  0  0  0
  1 28  1  0  0  0  0
  2  7  2  0  0  0  0
  2  3  1  0  0  0  0
  3  4  2  0  0  0  0
  3 29  1  0  0  0  0
  4  5  1  0  0  0  0
  4 30  1  0  0  0  0
  5  6  2  0  0  0  0
  5  9  1  0  0  0  0
  6  7  1  0  0  0  0
  6 31  1  0  0  0  0
  7  8  1  0  0  0  0
  8 32  1  0  0  0  0
  8 33  1  0  0  0  0
  8 34  1  0  0  0  0
  9 13  1  0  0  0  0
  9 10  2  0  0  0  0
 10 11  1  0  0  0  0
 10 35  1  0  0  0  0
 11 12  1  0  0  0  0
 12 13  2  0  0  0  0
 12 18  1  0  0  0  0
 13 14  1  0  0  0  0
 14 15  2  0  0  0  0
 14 16  1  0  0  0  0
 16 17  1  0  0  0  0
 17 36  1  0  0  0  0
 17 37  1  0  0  0  0
 17 38  1  0  0  0  0
 18 19  1  0  0  0  0
 18 39  1  0  0  0  0
 19 20  2  0  0  0  0
 19 21  1  0  0  0  0
 21 22  1  0  0  0  0
 21 40  1  0  0  0  0
 21 41  1  0  0  0  0
 22 23  1  0  0  0  0
 22 42  1  0  0  0  0
 22 43  1  0  0  0  0
 23 24  1  0  0  0  0
 23 44  1  0  0  0  0
 23 45  1  0  0  0  0
 24 25  2  0  0  0  0
 24 46  1  0  0  0  0
M  CHG  1  46  -1
M  END
$$$$
ZINC03891060
  -OEChem-08230709463D

 52 55  0     1  0  0  0  0  0999 V2000
    3.2585   -2.9335    2.4650 C   0  0  0  0  0  0  0  0  0  0  0  0
    3.1390   -2.3521    1.0548 C   0  0  0  0  0  0  0  0  0  0  0  0
    2.8768   -0.9265    1.1397 O   0  0  0  0  0  0  0  0  0  0  0  0
    2.7434   -0.2581   -0.0242 C   0  0  0  0  0  0  0  0  0  0  0  0
    2.8437   -0.8515   -1.0813 O   0  0  0  0  0  0  0  0  0  0  0  0
    2.4778    1.1820   -0.0153 C   0  0  0  0  0  0  0  0  0  0  0  0
    3.5629    2.1489   -0.0213 C   0  0  0  0  0  0  0  0  0  0  0  0
    3.1797    3.4438   -0.0110 C   0  0  0  0  0  0  0  0  0  0  0  0
    1.4100    3.3924   -0.0009 S   0  0  0  0  0  0  0  0  0  0  0  0
    1.1797    1.6751   -0.0002 C   0  0  0  0  0  0  0  0  0  0  0  0
   -0.0111    0.9658    0.0074 N   0  0  0  0  0  0  0  0  0  0  0  0
   -1.1873    1.6238    0.0165 C   0  0  0  0  0  0  0  0  0  0  0  0
   -1.2037    2.8364    0.0232 O   0  0  0  0  0  0  0  0  0  0  0  0
   -2.4820    0.8526    0.0185 C   0  0  1  0  0  0  0  0  0  0  0  0
   -2.5350    0.2297   -0.8745 H   0  0  0  0  0  0  0  0  0  0  0  0
   -2.5451   -0.0370    1.2666 C   0  0  1  0  0  0  0  0  0  0  0  0
   -1.7374   -0.7689    1.2606 H   0  0  0  0  0  0  0  0  0  0  0  0
   -2.4540    0.8637    2.5061 C   0  0  0  0  0  0  0  0  0  0  0  0
   -3.6303    1.8424    2.5150 C   0  0  0  0  0  0  0  0  0  0  0  0
   -4.5105    1.5984    1.2815 C   0  0  1  0  0  0  0  0  0  0  0  0
   -5.3835    2.2510    1.2944 H   0  0  0  0  0  0  0  0  0  0  0  0
   -3.6584    1.8314    0.0274 C   0  0  2  0  0  0  0  0  0  0  0  0
   -3.2801    2.8537    0.0302 H   0  0  0  0  0  0  0  0  0  0  0  0
   -4.5030    1.6124   -1.2013 C   0  0  0  0  0  0  0  0  0  0  0  0
   -4.1957    0.7611   -2.0018 O   0  0  0  0  0  0  0  0  0  0  0  0
   -4.9299    0.1359    1.2951 C   0  0  0  0  0  0  0  0  0  0  0  0
   -3.9068   -0.7154    1.2874 C   0  0  0  0  0  0  0  0  0  0  0  0
    4.0688    4.6490   -0.0136 C   0  0  0  0  0  0  0  0  0  0  0  0
    5.4923    4.2007    0.3479 C   0  0  0  0  0  0  0  0  0  0  0  0
    5.8540    2.9767   -0.4984 C   0  0  0  0  0  0  0  0  0  0  0  0
    5.0380    1.7672   -0.0389 C   0  0  0  0  0  0  0  0  0  0  0  0
    3.4554   -4.0037    2.4013 H   0  0  0  0  0  0  0  0  0  0  0  0
    4.0778   -2.4441    2.9916 H   0  0  0  0  0  0  0  0  0  0  0  0
    2.3275   -2.7670    3.0068 H   0  0  0  0  0  0  0  0  0  0  0  0
    2.3197   -2.8416    0.5283 H   0  0  0  0  0  0  0  0  0  0  0  0
    4.0701   -2.5187    0.5131 H   0  0  0  0  0  0  0  0  0  0  0  0
    0.0021   -0.0041    0.0020 H   0  0  0  0  0  0  0  0  0  0  0  0
   -2.4867    0.2485    3.4053 H   0  0  0  0  0  0  0  0  0  0  0  0
   -1.5178    1.4214    2.4817 H   0  0  0  0  0  0  0  0  0  0  0  0
   -4.2213    1.6917    3.4184 H   0  0  0  0  0  0  0  0  0  0  0  0
   -3.2523    2.8646    2.4949 H   0  0  0  0  0  0  0  0  0  0  0  0
   -5.9620   -0.1820    1.3094 H   0  0  0  0  0  0  0  0  0  0  0  0
   -4.0317   -1.7882    1.2948 H   0  0  0  0  0  0  0  0  0  0  0  0
    3.7126    5.3695    0.7226 H   0  0  0  0  0  0  0  0  0  0  0  0
    4.0676    5.1047   -1.0037 H   0  0  0  0  0  0  0  0  0  0  0  0
    5.5356    3.9395    1.4053 H   0  0  0  0  0  0  0  0  0  0  0  0
    6.1936    5.0088    0.1401 H   0  0  0  0  0  0  0  0  0  0  0  0
    6.9164    2.7603   -0.3867 H   0  0  0  0  0  0  0  0  0  0  0  0
    5.6361    3.1837   -1.5461 H   0  0  0  0  0  0  0  0  0  0  0  0
    5.3516    1.4741    0.9630 H   0  0  0  0  0  0  0  0  0  0  0  0
    5.1923    0.9366   -0.7277 H   0  0  0  0  0  0  0  0  0  0  0  0
   -5.5967    2.3631   -1.4065 O   0  5  0  0  0  0  0  0  0  0  0  0
  1  2  1  0  0  0  0
  1 32  1  0  0  0  0
  1 33  1  0  0  0  0
  1 34  1  0  0  0  0
  2  3  1  0  0  0  0
  2 35  1  0  0  0  0
  2 36  1  0  0  0  0
  3  4  1  0  0  0  0
  4  5  2  0  0  0  0
  4  6  1  0  0  0  0
  6 10  2  0  0  0  0
  6  7  1  0  0  0  0
  7 31  1  0  0  0  0
  7  8  2  0  0  0  0
  8  9  1  0  0  0  0
  8 28  1  0  0  0  0
  9 10  1  0  0  0  0
 10 11  1  0  0  0  0
 11 12  1  0  0  0  0
 11 37  1  0  0  0  0
 12 13  2  0  0  0  0
 12 14  1  0  0  0  0
 14 15  1  0  0  0  0
 14 22  1  0  0  0  0
 14 16  1  0  0  0  0
 16 17  1  0  0  0  0
 16 27  1  0  0  0  0
 16 18  1  0  0  0  0
 18 19  1  0  0  0  0
 18 38  1  0  0  0  0
 18 39  1  0  0  0  0
 19 20  1  0  0  0  0
 19 40  1  0  0  0  0
 19 41  1  0  0  0  0
 20 21  1  0  0  0  0
 20 22  1  0  0  0  0
 20 26  1  0  0  0  0
 22 23  1  0  0  0  0
 22 24  1  0  0  0  0
 24 25  2  0  0  0  0
 24 52  1  0  0  0  0
 26 27  2  0  0  0  0
 26 42  1  0  0  0  0
 27 43  1  0  0  0  0
 28 29  1  0  0  0  0
 28 44  1  0  0  0  0
 28 45  1  0  0  0  0
 29 30  1  0  0  0  0
 29 46  1  0  0  0  0
 29 47  1  0  0  0  0
 30 31  1  0  0  0  0
 30 48  1  0  0  0  0
 30 49  1  0  0  0  0
 31 50  1  0  0  0  0
 31 51  1  0  0  0  0
M  CHG  1  52  -1
M  END
$$$$
ZINC03891087
  -OEChem-08230709463D

 49 52  0     0  0  0  0  0  0999 V2000
   -0.0127    1.0858    0.0080 C   0  0  0  0  0  0  0  0  0  0  0  0
   -0.7288    1.5792    1.2668 C   0  0  0  0  0  0  0  0  0  0  0  0
   -2.1427    1.0576    1.2775 C   0  0  0  0  0  0  0  0  0  0  0  0
   -3.1550    1.8332    0.7905 C   0  0  0  0  0  0  0  0  0  0  0  0
   -4.4676    1.3478    0.8003 C   0  0  0  0  0  0  0  0  0  0  0  0
   -4.7405    0.0661    1.3097 C   0  0  0  0  0  0  0  0  0  0  0  0
   -3.7013   -0.7089    1.8008 C   0  0  0  0  0  0  0  0  0  0  0  0
   -2.4067   -0.2152    1.7791 C   0  0  0  0  0  0  0  0  0  0  0  0
   -1.3880   -0.9758    2.2551 O   0  0  0  0  0  0  0  0  0  0  0  0
   -1.7247   -2.2713    2.7555 C   0  0  0  0  0  0  0  0  0  0  0  0
   -0.4759   -2.9638    3.2371 C   0  0  0  0  0  0  0  0  0  0  0  0
    0.8282   -2.4471    3.2062 C   0  0  0  0  0  0  0  0  0  0  0  0
    1.6427   -3.4045    3.7421 C   0  0  0  0  0  0  0  0  0  0  0  0
    0.8769   -4.4636    4.0776 O   0  0  0  0  0  0  0  0  0  0  0  0
   -0.4010   -4.2018    3.7747 C   0  0  0  0  0  0  0  0  0  0  0  0
   -1.5642   -5.1336    3.9973 C   0  0  0  0  0  0  0  0  0  0  0  0
    3.0934   -3.3017    3.9158 C   0  0  0  0  0  0  0  0  0  0  0  0
    3.6768   -2.2910    3.5731 O   0  0  0  0  0  0  0  0  0  0  0  0
   -6.0098   -0.3937    1.3146 O   0  0  0  0  0  0  0  0  0  0  0  0
   -7.0205    0.3463    0.8401 C   0  0  0  0  0  0  0  0  0  0  0  0
   -8.1487   -0.1119    0.8653 O   0  0  0  0  0  0  0  0  0  0  0  0
   -6.8197    1.6448    0.3092 C   0  0  0  0  0  0  0  0  0  0  0  0
   -5.5734    2.1646    0.2831 C   0  0  0  0  0  0  0  0  0  0  0  0
   -5.2665    3.5398   -0.2415 C   0  0  0  0  0  0  0  0  0  0  0  0
   -6.4143    4.0544   -1.1086 C   0  0  0  0  0  0  0  0  0  0  0  0
   -7.7226    3.8814   -0.3273 C   0  0  0  0  0  0  0  0  0  0  0  0
   -8.0206    2.3877   -0.2135 C   0  0  0  0  0  0  0  0  0  0  0  0
    0.0021   -0.0041    0.0020 H   0  0  0  0  0  0  0  0  0  0  0  0
    1.0099    1.4631    0.0003 H   0  0  0  0  0  0  0  0  0  0  0  0
   -0.5399    1.4469   -0.8751 H   0  0  0  0  0  0  0  0  0  0  0  0
   -0.2017    1.2182    2.1499 H   0  0  0  0  0  0  0  0  0  0  0  0
   -0.7436    2.6691    1.2728 H   0  0  0  0  0  0  0  0  0  0  0  0
   -2.9438    2.8174    0.3990 H   0  0  0  0  0  0  0  0  0  0  0  0
   -3.8992   -1.6949    2.1945 H   0  0  0  0  0  0  0  0  0  0  0  0
   -2.4263   -2.1700    3.5835 H   0  0  0  0  0  0  0  0  0  0  0  0
   -2.1831   -2.8599    1.9608 H   0  0  0  0  0  0  0  0  0  0  0  0
    1.1295   -1.4792    2.8336 H   0  0  0  0  0  0  0  0  0  0  0  0
   -1.7049   -5.7566    3.1141 H   0  0  0  0  0  0  0  0  0  0  0  0
   -1.3619   -5.7675    4.8606 H   0  0  0  0  0  0  0  0  0  0  0  0
   -2.4673   -4.5506    4.1783 H   0  0  0  0  0  0  0  0  0  0  0  0
   -5.1176    4.2193    0.5976 H   0  0  0  0  0  0  0  0  0  0  0  0
   -4.3550    3.5015   -0.8379 H   0  0  0  0  0  0  0  0  0  0  0  0
   -6.4607    3.4814   -2.0346 H   0  0  0  0  0  0  0  0  0  0  0  0
   -6.2592    5.1090   -1.3365 H   0  0  0  0  0  0  0  0  0  0  0  0
   -8.5352    4.3787   -0.8570 H   0  0  0  0  0  0  0  0  0  0  0  0
   -7.6153    4.3114    0.6685 H   0  0  0  0  0  0  0  0  0  0  0  0
   -8.2840    1.9980   -1.1969 H   0  0  0  0  0  0  0  0  0  0  0  0
   -8.8587    2.2401    0.4675 H   0  0  0  0  0  0  0  0  0  0  0  0
    3.7825   -4.3279    4.4560 O   0  5  0  0  0  0  0  0  0  0  0  0
  1  2  1  0  0  0  0
  1 28  1  0  0  0  0
  1 29  1  0  0  0  0
  1 30  1  0  0  0  0
  2  3  1  0  0  0  0
  2 31  1  0  0  0  0
  2 32  1  0  0  0  0
  3  8  2  0  0  0  0
  3  4  1  0  0  0  0
  4  5  2  0  0  0  0
  4 33  1  0  0  0  0
  5 23  1  0  0  0  0
  5  6  1  0  0  0  0
  6  7  2  0  0  0  0
  6 19  1  0  0  0  0
  7  8  1  0  0  0  0
  7 34  1  0  0  0  0
  8  9  1  0  0  0  0
  9 10  1  0  0  0  0
 10 11  1  0  0  0  0
 10 35  1  0  0  0  0
 10 36  1  0  0  0  0
 11 15  2  0  0  0  0
 11 12  1  0  0  0  0
 12 13  2  0  0  0  0
 12 37  1  0  0  0  0
 13 14  1  0  0  0  0
 13 17  1  0  0  0  0
 14 15  1  0  0  0  0
 15 16  1  0  0  0  0
 16 38  1  0  0  0  0
 16 39  1  0  0  0  0
 16 40  1  0  0  0  0
 17 18  2  0  0  0  0
 17 49  1  0  0  0  0
 19 20  1  0  0  0  0
 20 21  2  0  0  0  0
 20 22  1  0  0  0  0
 22 27  1  0  0  0  0
 22 23  2  0  0  0  0
 23 24  1  0  0  0  0
 24 25  1  0  0  0  0
 24 41  1  0  0  0  0
 24 42  1  0  0  0  0
 25 26  1  0  0  0  0
 25 43  1  0  0  0  0
 25 44  1  0  0  0  0
 26 27  1  0  0  0  0
 26 45  1  0  0  0  0
 26 46  1  0  0  0  0
 27 47  1  0  0  0  0
 27 48  1  0  0  0  0
M  CHG  1  49  -1
M  END
$$$$
ZINC03891107
  -OEChem-08230709463D

 52 55  0     1  0  0  0  0  0999 V2000
    3.8758   -3.9601    1.8400 C   0  0  0  0  0  0  0  0  0  0  0  0
    3.3527   -3.1364    3.0185 C   0  0  0  0  0  0  0  0  0  0  0  0
    1.9008   -3.1519    3.0131 O   0  0  0  0  0  0  0  0  0  0  0  0
    1.2775   -2.4676    3.9943 C   0  0  0  0  0  0  0  0  0  0  0  0
    1.9306   -1.8742    4.8315 O   0  0  0  0  0  0  0  0  0  0  0  0
   -0.1855   -2.4391    4.0516 C   0  0  0  0  0  0  0  0  0  0  0  0
   -0.9306   -3.4412    4.7953 C   0  0  0  0  0  0  0  0  0  0  0  0
   -2.2732   -3.2984    4.7668 C   0  0  0  0  0  0  0  0  0  0  0  0
   -2.5546   -1.8570    3.7781 S   0  0  0  0  0  0  0  0  0  0  0  0
   -0.9131   -1.4534    3.3978 C   0  0  0  0  0  0  0  0  0  0  0  0
   -0.4406   -0.3992    2.6319 N   0  0  0  0  0  0  0  0  0  0  0  0
   -1.3070    0.4667    2.0697 C   0  0  0  0  0  0  0  0  0  0  0  0
   -2.5000    0.3234    2.2339 O   0  0  0  0  0  0  0  0  0  0  0  0
   -0.7933    1.6128    1.2370 C   0  0  2  0  0  0  0  0  0  0  0  0
   -0.1649    2.2717    1.8363 H   0  0  0  0  0  0  0  0  0  0  0  0
   -1.9819    2.4092    0.6016 C   0  0  2  0  0  0  0  0  0  0  0  0
   -2.8237    2.6431    1.2532 H   0  0  0  0  0  0  0  0  0  0  0  0
   -2.2890    1.5117   -0.6526 C   0  0  0  0  0  0  0  0  0  0  0  0
   -0.8236    1.6307   -1.2107 C   0  0  2  0  0  0  0  0  0  0  0  0
   -0.6267    1.1567   -2.1723 H   0  0  0  0  0  0  0  0  0  0  0  0
   -0.0127    1.0858    0.0080 C   0  0  1  0  0  0  0  0  0  0  0  0
    0.0021   -0.0041    0.0020 H   0  0  0  0  0  0  0  0  0  0  0  0
    1.3913    1.6332   -0.0025 C   0  0  0  0  0  0  0  0  0  0  0  0
    1.7687    2.3456    0.8975 O   0  0  0  0  0  0  0  0  0  0  0  0
   -0.6189    3.1492   -1.1461 C   0  0  0  0  0  0  0  0  0  0  0  0
   -1.3048    3.5995   -0.0888 C   0  0  0  0  0  0  0  0  0  0  0  0
   -3.2889   -4.1725    5.4356 C   0  0  0  0  0  0  0  0  0  0  0  0
   -2.5678   -5.0458    6.4726 C   0  0  0  0  0  0  0  0  0  0  0  0
   -1.3298   -5.6669    5.8193 C   0  0  1  0  0  0  0  0  0  0  0  0
   -1.6128   -6.1286    4.8733 H   0  0  0  0  0  0  0  0  0  0  0  0
   -0.2792   -4.5852    5.5626 C   0  0  0  0  0  0  0  0  0  0  0  0
   -0.7462   -6.7317    6.7501 C   0  0  0  0  0  0  0  0  0  0  0  0
    4.9658   -3.9485    1.8440 H   0  0  0  0  0  0  0  0  0  0  0  0
    3.5231   -4.9875    1.9298 H   0  0  0  0  0  0  0  0  0  0  0  0
    3.5113   -3.5310    0.9066 H   0  0  0  0  0  0  0  0  0  0  0  0
    3.7054   -2.1090    2.9287 H   0  0  0  0  0  0  0  0  0  0  0  0
    3.7172   -3.5654    3.9518 H   0  0  0  0  0  0  0  0  0  0  0  0
    0.5136   -0.2847    2.5005 H   0  0  0  0  0  0  0  0  0  0  0  0
   -3.0267    1.9613   -1.3173 H   0  0  0  0  0  0  0  0  0  0  0  0
   -2.5503    0.4891   -0.3804 H   0  0  0  0  0  0  0  0  0  0  0  0
   -0.0353    3.7378   -1.8385 H   0  0  0  0  0  0  0  0  0  0  0  0
   -1.3647    4.6305    0.2272 H   0  0  0  0  0  0  0  0  0  0  0  0
   -3.7725   -4.8075    4.6934 H   0  0  0  0  0  0  0  0  0  0  0  0
   -4.0363   -3.5539    5.9325 H   0  0  0  0  0  0  0  0  0  0  0  0
   -3.2367   -5.8362    6.8131 H   0  0  0  0  0  0  0  0  0  0  0  0
   -2.2644   -4.4332    7.3216 H   0  0  0  0  0  0  0  0  0  0  0  0
    0.5379   -5.0017    4.9736 H   0  0  0  0  0  0  0  0  0  0  0  0
    0.1068   -4.2150    6.5124 H   0  0  0  0  0  0  0  0  0  0  0  0
   -0.4601   -6.2706    7.6955 H   0  0  0  0  0  0  0  0  0  0  0  0
   -1.4940   -7.5032    6.9338 H   0  0  0  0  0  0  0  0  0  0  0  0
    0.1314   -7.1800    6.2843 H   0  0  0  0  0  0  0  0  0  0  0  0
    2.2226    1.3294   -1.0116 O   0  5  0  0  0  0  0  0  0  0  0  0
  1  2  1  0  0  0  0
  1 33  1  0  0  0  0
  1 34  1  0  0  0  0
  1 35  1  0  0  0  0
  2  3  1  0  0  0  0
  2 36  1  0  0  0  0
  2 37  1  0  0  0  0
  3  4  1  0  0  0  0
  4  5  2  0  0  0  0
  4  6  1  0  0  0  0
  6 10  2  0  0  0  0
  6  7  1  0  0  0  0
  7 31  1  0  0  0  0
  7  8  2  0  0  0  0
  8  9  1  0  0  0  0
  8 27  1  0  0  0  0
  9 10  1  0  0  0  0
 10 11  1  0  0  0  0
 11 12  1  0  0  0  0
 11 38  1  0  0  0  0
 12 13  2  0  0  0  0
 12 14  1  0  0  0  0
 14 15  1  0  0  0  0
 14 21  1  0  0  0  0
 14 16  1  0  0  0  0
 16 17  1  0  0  0  0
 16 26  1  0  0  0  0
 16 18  1  0  0  0  0
 18 19  1  0  0  0  0
 18 39  1  0  0  0  0
 18 40  1  0  0  0  0
 19 20  1  0  0  0  0
 19 21  1  0  0  0  0
 19 25  1  0  0  0  0
 21 22  1  0  0  0  0
 21 23  1  0  0  0  0
 23 24  2  0  0  0  0
 23 52  1  0  0  0  0
 25 26  2  0  0  0  0
 25 41  1  0  0  0  0
 26 42  1  0  0  0  0
 27 28  1  0  0  0  0
 27 43  1  0  0  0  0
 27 44  1  0  0  0  0
 28 29  1  0  0  0  0
 28 45  1  0  0  0  0
 28 46  1  0  0  0  0
 29 30  1  0  0  0  0
 29 31  1  0  0  0  0
 29 32  1  0  0  0  0
 31 47  1  0  0  0  0
 31 48  1  0  0  0  0
 32 49  1  0  0  0  0
 32 50  1  0  0  0  0
 32 51  1  0  0  0  0
M  CHG  1  52  -1
M  END
$$$$
ZINC03894793
  -OEChem-08230709463D

 52 53  0     0  0  0  0  0  0999 V2000
    4.7388    9.2732    0.5176 C   0  0  0  0  0  0  0  0  0  0  0  0
    3.5631   10.2516    0.5573 C   0  0  0  0  0  0  0  0  0  0  0  0
    3.6742   11.2301   -0.6136 C   0  0  0  0  0  0  0  0  0  0  0  0
    3.5902   11.0282    1.8753 C   0  0  0  0  0  0  0  0  0  0  0  0
    2.2691    9.4865    0.4515 C   0  0  0  0  0  0  0  0  0  0  0  0
    2.2896    8.1115    0.3407 C   0  0  0  0  0  0  0  0  0  0  0  0
    1.0900    7.4044    0.2433 C   0  0  0  0  0  0  0  0  0  0  0  0
   -0.1230    8.0951    0.2530 C   0  0  0  0  0  0  0  0  0  0  0  0
   -0.1295    9.4697    0.3701 C   0  0  0  0  0  0  0  0  0  0  0  0
    1.0631   10.1645    0.4663 C   0  0  0  0  0  0  0  0  0  0  0  0
   -1.4383   10.2166    0.3870 C   0  0  0  0  0  0  0  0  0  0  0  0
   -1.4829   11.1940   -0.7892 C   0  0  0  0  0  0  0  0  0  0  0  0
   -2.5947    9.2219    0.2677 C   0  0  0  0  0  0  0  0  0  0  0  0
   -1.5659   10.9921    1.6997 C   0  0  0  0  0  0  0  0  0  0  0  0
    1.1044    5.9311    0.1243 C   0  0  0  0  0  0  0  0  0  0  0  0
    2.1624    5.3327    0.1111 O   0  0  0  0  0  0  0  0  0  0  0  0
   -0.0556    5.2513    0.0305 N   0  0  0  0  0  0  0  0  0  0  0  0
   -0.0483    3.8525    0.0293 C   0  0  0  0  0  0  0  0  0  0  0  0
   -0.9938    3.1531   -0.7119 C   0  0  0  0  0  0  0  0  0  0  0  0
   -0.9914    1.7710   -0.7161 C   0  0  0  0  0  0  0  0  0  0  0  0
   -0.0502    1.0756    0.0155 C   0  0  0  0  0  0  0  0  0  0  0  0
    0.9002    1.7684    0.7680 C   0  0  0  0  0  0  0  0  0  0  0  0
    0.9013    3.1638    0.7676 C   0  0  0  0  0  0  0  0  0  0  0  0
    1.9048    1.0266    1.5575 C   0  0  0  0  0  0  0  0  0  0  0  0
    2.7307    1.6314    2.2114 O   0  0  0  0  0  0  0  0  0  0  0  0
    4.7195    8.7199   -0.4213 H   0  0  0  0  0  0  0  0  0  0  0  0
    5.6747    9.8266    0.5941 H   0  0  0  0  0  0  0  0  0  0  0  0
    4.6597    8.5761    1.3518 H   0  0  0  0  0  0  0  0  0  0  0  0
    2.8367   11.9271   -0.5854 H   0  0  0  0  0  0  0  0  0  0  0  0
    4.6102   11.7835   -0.5371 H   0  0  0  0  0  0  0  0  0  0  0  0
    3.6550   10.6768   -1.5526 H   0  0  0  0  0  0  0  0  0  0  0  0
    3.5111   10.3311    2.7095 H   0  0  0  0  0  0  0  0  0  0  0  0
    4.5261   11.5816    1.9518 H   0  0  0  0  0  0  0  0  0  0  0  0
    2.7526   11.7252    1.9035 H   0  0  0  0  0  0  0  0  0  0  0  0
    3.2316    7.5834    0.3297 H   0  0  0  0  0  0  0  0  0  0  0  0
   -1.0544    7.5543    0.1735 H   0  0  0  0  0  0  0  0  0  0  0  0
    1.0526   11.2409    0.5536 H   0  0  0  0  0  0  0  0  0  0  0  0
   -1.3919   10.6415   -1.7244 H   0  0  0  0  0  0  0  0  0  0  0  0
   -2.4295   11.7343   -0.7770 H   0  0  0  0  0  0  0  0  0  0  0  0
   -0.6590   11.9026   -0.7042 H   0  0  0  0  0  0  0  0  0  0  0  0
   -2.5629    8.5256    1.1057 H   0  0  0  0  0  0  0  0  0  0  0  0
   -3.5413    9.7622    0.2800 H   0  0  0  0  0  0  0  0  0  0  0  0
   -2.5037    8.6694   -0.6674 H   0  0  0  0  0  0  0  0  0  0  0  0
   -0.7421   11.7007    1.7847 H   0  0  0  0  0  0  0  0  0  0  0  0
   -2.5126   11.5324    1.7119 H   0  0  0  0  0  0  0  0  0  0  0  0
   -1.5342   10.2958    2.5377 H   0  0  0  0  0  0  0  0  0  0  0  0
   -0.8954    5.7320   -0.0363 H   0  0  0  0  0  0  0  0  0  0  0  0
   -1.7331    3.6917   -1.2862 H   0  0  0  0  0  0  0  0  0  0  0  0
   -1.7288    1.2333   -1.2937 H   0  0  0  0  0  0  0  0  0  0  0  0
   -0.0517   -0.0044    0.0095 H   0  0  0  0  0  0  0  0  0  0  0  0
    1.6369    3.7053    1.3438 H   0  0  0  0  0  0  0  0  0  0  0  0
    1.9049   -0.3205    1.5522 O   0  5  0  0  0  0  0  0  0  0  0  0
  1  2  1  0  0  0  0
  1 26  1  0  0  0  0
  1 27  1  0  0  0  0
  1 28  1  0  0  0  0
  2  3  1  0  0  0  0
  2  4  1  0  0  0  0
  2  5  1  0  0  0  0
  3 29  1  0  0  0  0
  3 30  1  0  0  0  0
  3 31  1  0  0  0  0
  4 32  1  0  0  0  0
  4 33  1  0  0  0  0
  4 34  1  0  0  0  0
  5 10  2  0  0  0  0
  5  6  1  0  0  0  0
  6  7  2  0  0  0  0
  6 35  1  0  0  0  0
  7  8  1  0  0  0  0
  7 15  1  0  0  0  0
  8  9  2  0  0  0  0
  8 36  1  0  0  0  0
  9 10  1  0  0  0  0
  9 11  1  0  0  0  0
 10 37  1  0  0  0  0
 11 12  1  0  0  0  0
 11 13  1  0  0  0  0
 11 14  1  0  0  0  0
 12 38  1  0  0  0  0
 12 39  1  0  0  0  0
 12 40  1  0  0  0  0
 13 41  1  0  0  0  0
 13 42  1  0  0  0  0
 13 43  1  0  0  0  0
 14 44  1  0  0  0  0
 14 45  1  0  0  0  0
 14 46  1  0  0  0  0
 15 16  2  0  0  0  0
 15 17  1  0  0  0  0
 17 18  1  0  0  0  0
 17 47  1  0  0  0  0
 18 23  2  0  0  0  0
 18 19  1  0  0  0  0
 19 20  2  0  0  0  0
 19 48  1  0  0  0  0
 20 21  1  0  0  0  0
 20 49  1  0  0  0  0
 21 22  2  0  0  0  0
 21 50  1  0  0  0  0
 22 23  1  0  0  0  0
 22 24  1  0  0  0  0
 23 51  1  0  0  0  0
 24 25  2  0  0  0  0
 24 52  1  0  0  0  0
M  CHG  1  52  -1
M  END
$$$$
ZINC03896000
  -OEChem-08230709463D

 61 62  0     1  0  0  0  0  0999 V2000
   -2.1243   16.0096    2.4652 C   0  0  0  0  0  0  0  0  0  0  0  0
   -2.1036   14.4798    2.4573 C   0  0  0  0  0  0  0  0  0  0  0  0
   -1.2800   13.9870    1.2657 C   0  0  0  0  0  0  0  0  0  0  0  0
   -1.2592   12.4572    1.2578 C   0  0  0  0  0  0  0  0  0  0  0  0
   -0.4356   11.9645    0.0663 C   0  0  0  0  0  0  0  0  0  0  0  0
   -0.4148   10.4346    0.0584 C   0  0  0  0  0  0  0  0  0  0  0  0
    0.3020    9.9408   -1.1998 C   0  0  0  0  0  0  0  0  0  0  0  0
    0.3228    8.4110   -1.2077 C   0  0  0  0  0  0  0  0  0  0  0  0
    1.0621    7.9045    0.0324 C   0  0  0  0  0  0  0  0  0  0  0  0
    0.3452    8.3984    1.2906 C   0  0  0  0  0  0  0  0  0  0  0  0
    0.3244    9.9282    1.2985 C   0  0  0  0  0  0  0  0  0  0  0  0
    1.0825    6.3977    0.0247 C   0  0  0  0  0  0  0  0  0  0  0  0
    2.2917    5.7254    0.0104 C   0  0  0  0  0  0  0  0  0  0  0  0
    2.3174    4.3460    0.0033 C   0  0  0  0  0  0  0  0  0  0  0  0
    1.1201    3.6288    0.0109 C   0  0  0  0  0  0  0  0  0  0  0  0
   -0.0963    4.3132    0.0203 C   0  0  0  0  0  0  0  0  0  0  0  0
   -0.1080    5.6927    0.0322 C   0  0  0  0  0  0  0  0  0  0  0  0
    1.1401    2.1505    0.0027 C   0  0  0  0  0  0  0  0  0  0  0  0
    2.2009    1.5571   -0.0106 O   0  0  0  0  0  0  0  0  0  0  0  0
   -0.0178    1.4608    0.0101 N   0  0  0  0  0  0  0  0  0  0  0  0
    0.0021   -0.0041    0.0020 C   0  0  1  0  0  0  0  0  0  0  0  0
    0.8543   -0.3591    0.5815 H   0  0  0  0  0  0  0  0  0  0  0  0
   -1.2924   -0.5351    0.6212 C   0  0  0  0  0  0  0  0  0  0  0  0
   -2.4787   -0.1415   -0.2612 C   0  0  0  0  0  0  0  0  0  0  0  0
   -1.2191   -2.0597    0.7270 C   0  0  0  0  0  0  0  0  0  0  0  0
    0.1192   -0.4971   -1.4172 C   0  0  0  0  0  0  0  0  0  0  0  0
    0.1798    0.2940   -2.3285 O   0  0  0  0  0  0  0  0  0  0  0  0
   -1.1048   16.3864    2.5475 H   0  0  0  0  0  0  0  0  0  0  0  0
   -2.5718   16.3717    1.5396 H   0  0  0  0  0  0  0  0  0  0  0  0
   -2.7111   16.3607    3.3140 H   0  0  0  0  0  0  0  0  0  0  0  0
   -3.1231   14.1030    2.3749 H   0  0  0  0  0  0  0  0  0  0  0  0
   -1.6560   14.1177    3.3829 H   0  0  0  0  0  0  0  0  0  0  0  0
   -0.2605   14.3638    1.3481 H   0  0  0  0  0  0  0  0  0  0  0  0
   -1.7275   14.3491    0.3401 H   0  0  0  0  0  0  0  0  0  0  0  0
   -2.2787   12.0804    1.1755 H   0  0  0  0  0  0  0  0  0  0  0  0
   -0.8117   12.0951    2.1834 H   0  0  0  0  0  0  0  0  0  0  0  0
    0.5839   12.3412    0.1486 H   0  0  0  0  0  0  0  0  0  0  0  0
   -0.8831   12.3265   -0.8593 H   0  0  0  0  0  0  0  0  0  0  0  0
   -1.4374   10.0574    0.0657 H   0  0  0  0  0  0  0  0  0  0  0  0
    1.3246   10.3181   -1.2071 H   0  0  0  0  0  0  0  0  0  0  0  0
   -0.2246   10.3016   -2.0833 H   0  0  0  0  0  0  0  0  0  0  0  0
    0.8335    8.0591   -2.1041 H   0  0  0  0  0  0  0  0  0  0  0  0
   -0.6998    8.0337   -1.2004 H   0  0  0  0  0  0  0  0  0  0  0  0
    2.0846    8.2818    0.0252 H   0  0  0  0  0  0  0  0  0  0  0  0
   -0.6774    8.0211    1.2979 H   0  0  0  0  0  0  0  0  0  0  0  0
    0.8718    8.0376    2.1741 H   0  0  0  0  0  0  0  0  0  0  0  0
    1.3470   10.3055    1.2913 H   0  0  0  0  0  0  0  0  0  0  0  0
   -0.1863   10.2800    2.1949 H   0  0  0  0  0  0  0  0  0  0  0  0
    3.2174    6.2816    0.0046 H   0  0  0  0  0  0  0  0  0  0  0  0
    3.2619    3.8224   -0.0078 H   0  0  0  0  0  0  0  0  0  0  0  0
   -1.0263    3.7641    0.0217 H   0  0  0  0  0  0  0  0  0  0  0  0
   -1.0485    6.2235    0.0433 H   0  0  0  0  0  0  0  0  0  0  0  0
   -0.8643    1.9343    0.0167 H   0  0  0  0  0  0  0  0  0  0  0  0
   -1.4215   -0.1076    1.6155 H   0  0  0  0  0  0  0  0  0  0  0  0
   -2.3495   -0.5690   -1.2555 H   0  0  0  0  0  0  0  0  0  0  0  0
   -3.4009   -0.5198    0.1799 H   0  0  0  0  0  0  0  0  0  0  0  0
   -2.5309    0.9446   -0.3366 H   0  0  0  0  0  0  0  0  0  0  0  0
   -0.3739   -2.3400    1.3556 H   0  0  0  0  0  0  0  0  0  0  0  0
   -2.1413   -2.4380    1.1681 H   0  0  0  0  0  0  0  0  0  0  0  0
   -1.0899   -2.4871   -0.2673 H   0  0  0  0  0  0  0  0  0  0  0  0
    0.1561   -1.8150   -1.6690 O   0  5  0  0  0  0  0  0  0  0  0  0
  1  2  1  0  0  0  0
  1 28  1  0  0  0  0
  1 29  1  0  0  0  0
  1 30  1  0  0  0  0
  2  3  1  0  0  0  0
  2 31  1  0  0  0  0
  2 32  1  0  0  0  0
  3  4  1  0  0  0  0
  3 33  1  0  0  0  0
  3 34  1  0  0  0  0
  4  5  1  0  0  0  0
  4 35  1  0  0  0  0
  4 36  1  0  0  0  0
  5  6  1  0  0  0  0
  5 37  1  0  0  0  0
  5 38  1  0  0  0  0
  6 11  1  0  0  0  0
  6  7  1  0  0  0  0
  6 39  1  0  0  0  0
  7  8  1  0  0  0  0
  7 40  1  0  0  0  0
  7 41  1  0  0  0  0
  8  9  1  0  0  0  0
  8 42  1  0  0  0  0
  8 43  1  0  0  0  0
  9 10  1  0  0  0  0
  9 12  1  0  0  0  0
  9 44  1  0  0  0  0
 10 11  1  0  0  0  0
 10 45  1  0  0  0  0
 10 46  1  0  0  0  0
 11 47  1  0  0  0  0
 11 48  1  0  0  0  0
 12 17  2  0  0  0  0
 12 13  1  0  0  0  0
 13 14  2  0  0  0  0
 13 49  1  0  0  0  0
 14 15  1  0  0  0  0
 14 50  1  0  0  0  0
 15 16  2  0  0  0  0
 15 18  1  0  0  0  0
 16 17  1  0  0  0  0
 16 51  1  0  0  0  0
 17 52  1  0  0  0  0
 18 19  2  0  0  0  0
 18 20  1  0  0  0  0
 20 21  1  0  0  0  0
 20 53  1  0  0  0  0
 21 22  1  0  0  0  0
 21 23  1  0  0  0  0
 21 26  1  0  0  0  0
 23 24  1  0  0  0  0
 23 25  1  0  0  0  0
 23 54  1  0  0  0  0
 24 55  1  0  0  0  0
 24 56  1  0  0  0  0
 24 57  1  0  0  0  0
 25 58  1  0  0  0  0
 25 59  1  0  0  0  0
 25 60  1  0  0  0  0
 26 27  2  0  0  0  0
 26 61  1  0  0  0  0
M  CHG  1  61  -1
M  END
$$$$
ZINC03896216
  -OEChem-08230709463D

 52 53  0     0  0  0  0  0  0999 V2000
    9.3246   -3.2853   -2.9831 C   0  0  0  0  0  0  0  0  0  0  0  0
    9.3540   -2.7824   -1.5385 C   0  0  0  0  0  0  0  0  0  0  0  0
    9.4008   -1.2531   -1.5317 C   0  0  0  0  0  0  0  0  0  0  0  0
    9.4302   -0.7502   -0.0870 C   0  0  0  0  0  0  0  0  0  0  0  0
    9.4749    0.7141   -0.0805 N   0  0  0  0  0  0  0  0  0  0  0  0
   10.7654    1.4076   -0.0896 C   0  0  0  0  0  0  0  0  0  0  0  0
   11.2284    1.6422    1.3496 C   0  0  0  0  0  0  0  0  0  0  0  0
   12.5762    2.3664    1.3401 C   0  0  0  0  0  0  0  0  0  0  0  0
   13.0392    2.6010    2.7794 C   0  0  0  0  0  0  0  0  0  0  0  0
    8.2917    1.4463   -0.0657 C   0  0  0  0  0  0  0  0  0  0  0  0
    8.3365    2.8380   -0.0596 C   0  0  0  0  0  0  0  0  0  0  0  0
    7.1730    3.5633   -0.0455 C   0  0  0  0  0  0  0  0  0  0  0  0
    5.9386    2.9025   -0.0372 C   0  0  0  0  0  0  0  0  0  0  0  0
    5.8981    1.5029   -0.0376 C   0  0  0  0  0  0  0  0  0  0  0  0
    7.0662    0.7853   -0.0576 C   0  0  0  0  0  0  0  0  0  0  0  0
    4.7800    3.6194   -0.0232 N   0  0  0  0  0  0  0  0  0  0  0  0
    3.6437    3.0088   -0.0157 N   0  0  0  0  0  0  0  0  0  0  0  0
    2.4832    3.7270   -0.0016 C   0  0  0  0  0  0  0  0  0  0  0  0
    2.5201    5.1223    0.0050 C   0  0  0  0  0  0  0  0  0  0  0  0
    1.3437    5.8430    0.0196 C   0  0  0  0  0  0  0  0  0  0  0  0
    0.1207    5.1918    0.0278 C   0  0  0  0  0  0  0  0  0  0  0  0
    0.0616    3.8131    0.0161 C   0  0  0  0  0  0  0  0  0  0  0  0
    1.2383    3.0647    0.0067 C   0  0  0  0  0  0  0  0  0  0  0  0
    1.1811    1.5909   -0.0007 C   0  0  0  0  0  0  0  0  0  0  0  0
    2.2089    0.9431   -0.0140 O   0  0  0  0  0  0  0  0  0  0  0  0
    9.2913   -4.3748   -2.9880 H   0  0  0  0  0  0  0  0  0  0  0  0
    8.4413   -2.8926   -3.4867 H   0  0  0  0  0  0  0  0  0  0  0  0
   10.2203   -2.9469   -3.5040 H   0  0  0  0  0  0  0  0  0  0  0  0
   10.2374   -3.1751   -1.0349 H   0  0  0  0  0  0  0  0  0  0  0  0
    8.4583   -3.1208   -1.0176 H   0  0  0  0  0  0  0  0  0  0  0  0
    8.5174   -0.8604   -2.0352 H   0  0  0  0  0  0  0  0  0  0  0  0
   10.2965   -0.9147   -2.0525 H   0  0  0  0  0  0  0  0  0  0  0  0
   10.3135   -1.1429    0.4165 H   0  0  0  0  0  0  0  0  0  0  0  0
    8.5345   -1.0886    0.4338 H   0  0  0  0  0  0  0  0  0  0  0  0
   11.5017    0.7980   -0.6134 H   0  0  0  0  0  0  0  0  0  0  0  0
   10.6593    2.3659   -0.5979 H   0  0  0  0  0  0  0  0  0  0  0  0
   10.4921    2.2517    1.8734 H   0  0  0  0  0  0  0  0  0  0  0  0
   11.3345    0.6838    1.8580 H   0  0  0  0  0  0  0  0  0  0  0  0
   13.3125    1.7568    0.8164 H   0  0  0  0  0  0  0  0  0  0  0  0
   12.4701    3.3247    0.8318 H   0  0  0  0  0  0  0  0  0  0  0  0
   13.9993    3.1169    2.7726 H   0  0  0  0  0  0  0  0  0  0  0  0
   12.3029    3.2105    3.3032 H   0  0  0  0  0  0  0  0  0  0  0  0
   13.1453    1.6426    3.2877 H   0  0  0  0  0  0  0  0  0  0  0  0
    9.2890    3.3469   -0.0663 H   0  0  0  0  0  0  0  0  0  0  0  0
    7.2086    4.6427   -0.0411 H   0  0  0  0  0  0  0  0  0  0  0  0
    4.9481    0.9894   -0.0268 H   0  0  0  0  0  0  0  0  0  0  0  0
    7.0358   -0.2943   -0.0624 H   0  0  0  0  0  0  0  0  0  0  0  0
    3.4692    5.6376   -0.0009 H   0  0  0  0  0  0  0  0  0  0  0  0
    1.3764    6.9225    0.0244 H   0  0  0  0  0  0  0  0  0  0  0  0
   -0.7930    5.7675    0.0393 H   0  0  0  0  0  0  0  0  0  0  0  0
   -0.8960    3.3136    0.0184 H   0  0  0  0  0  0  0  0  0  0  0  0
   -0.0110    0.9628    0.0073 O   0  5  0  0  0  0  0  0  0  0  0  0
  1  2  1  0  0  0  0
  1 26  1  0  0  0  0
  1 27  1  0  0  0  0
  1 28  1  0  0  0  0
  2  3  1  0  0  0  0
  2 29  1  0  0  0  0
  2 30  1  0  0  0  0
  3  4  1  0  0  0  0
  3 31  1  0  0  0  0
  3 32  1  0  0  0  0
  4  5  1  0  0  0  0
  4 33  1  0  0  0  0
  4 34  1  0  0  0  0
  5  6  1  0  0  0  0
  5 10  1  0  0  0  0
  6  7  1  0  0  0  0
  6 35  1  0  0  0  0
  6 36  1  0  0  0  0
  7  8  1  0  0  0  0
  7 37  1  0  0  0  0
  7 38  1  0  0  0  0
  8  9  1  0  0  0  0
  8 39  1  0  0  0  0
  8 40  1  0  0  0  0
  9 41  1  0  0  0  0
  9 42  1  0  0  0  0
  9 43  1  0  0  0  0
 10 15  2  0  0  0  0
 10 11  1  0  0  0  0
 11 12  2  0  0  0  0
 11 44  1  0  0  0  0
 12 13  1  0  0  0  0
 12 45  1  0  0  0  0
 13 14  2  0  0  0  0
 13 16  1  0  0  0  0
 14 15  1  0  0  0  0
 14 46  1  0  0  0  0
 15 47  1  0  0  0  0
 16 17  2  0  0  0  0
 17 18  1  0  0  0  0
 18 23  2  0  0  0  0
 18 19  1  0  0  0  0
 19 20  2  0  0  0  0
 19 48  1  0  0  0  0
 20 21  1  0  0  0  0
 20 49  1  0  0  0  0
 21 22  2  0  0  0  0
 21 50  1  0  0  0  0
 22 23  1  0  0  0  0
 22 51  1  0  0  0  0
 23 24  1  0  0  0  0
 24 25  2  0  0  0  0
 24 52  1  0  0  0  0
M  CHG  1  52  -1
M  END
$$$$
ZINC03915990
  -OEChem-08230709463D

 68 70  0     1  0  0  0  0  0999 V2000
   -6.1500   -3.0059   -3.2431 C   0  0  0  0  0  0  0  0  0  0  0  0
   -4.7647   -2.5236   -2.8979 C   0  0  0  0  0  0  0  0  0  0  0  0
   -4.1656   -1.6478   -3.6661 C   0  0  0  0  0  0  0  0  0  0  0  0
   -2.7802   -1.1656   -3.3210 C   0  0  1  0  0  0  0  0  0  0  0  0
   -2.8447   -0.1724   -2.8765 H   0  0  0  0  0  0  0  0  0  0  0  0
   -2.1589   -2.1078   -2.3323 C   0  0  0  0  0  0  0  0  0  0  0  0
   -1.2530   -2.9845   -2.6353 C   0  0  0  0  0  0  0  0  0  0  0  0
   -0.6994   -3.1609   -4.0154 C   0  0  1  0  0  0  0  0  0  0  0  0
   -0.4551   -4.6325   -4.3253 C   0  0  0  0  0  0  0  0  0  0  0  0
   -1.7846   -5.3882   -4.3642 C   0  0  1  0  0  0  0  0  0  0  0  0
   -2.2778   -5.3084   -3.3954 H   0  0  0  0  0  0  0  0  0  0  0  0
   -2.6775   -4.7739   -5.4454 C   0  0  0  0  0  0  0  0  0  0  0  0
   -2.9503   -3.3097   -5.1004 C   0  0  0  0  0  0  0  0  0  0  0  0
   -1.6322   -2.5330   -5.0494 C   0  0  1  0  0  0  0  0  0  0  0  0
   -1.1532   -2.5232   -6.0285 H   0  0  0  0  0  0  0  0  0  0  0  0
   -1.9366   -1.0956   -4.5957 C   0  0  1  0  0  0  0  0  0  0  0  0
   -2.7144   -0.3617   -5.6899 C   0  0  0  0  0  0  0  0  0  0  0  0
   -0.6475   -0.3679   -4.3131 C   0  0  0  0  0  0  0  0  0  0  0  0
    0.2292   -0.0944   -5.3409 C   0  0  0  0  0  0  0  0  0  0  0  0
    1.4274    0.7469   -5.2595 C   0  0  0  0  0  0  0  0  0  0  0  0
    1.8483    1.3389   -4.2871 O   0  0  0  0  0  0  0  0  0  0  0  0
    2.0263    0.7176   -6.6485 C   0  0  1  0  0  0  0  0  0  0  0  0
    3.0312    0.2969   -6.6131 H   0  0  0  0  0  0  0  0  0  0  0  0
    1.1546   -0.1326   -7.4626 N   0  0  0  0  0  0  0  0  0  0  0  0
    0.1354   -0.5922   -6.7202 C   0  0  0  0  0  0  0  0  0  0  0  0
   -0.7454   -1.3225   -7.1330 O   0  0  0  0  0  0  0  0  0  0  0  0
    1.3648   -0.4355   -8.8804 C   0  0  0  0  0  0  0  0  0  0  0  0
    2.0707    2.1321   -7.2301 C   0  0  0  0  0  0  0  0  0  0  0  0
    0.6517    2.7002   -7.2985 C   0  0  0  0  0  0  0  0  0  0  0  0
    0.6811    4.0446   -7.9787 C   0  0  0  0  0  0  0  0  0  0  0  0
    1.7294    4.5015   -8.3688 O   0  0  0  0  0  0  0  0  0  0  0  0
   -0.3534    0.0136   -3.0613 O   0  0  0  0  0  0  0  0  0  0  0  0
   -1.5268   -6.8608   -4.6894 C   0  0  0  0  0  0  0  0  0  0  0  0
    0.6408   -2.4269   -4.0909 C   0  0  0  0  0  0  0  0  0  0  0  0
   -2.6165   -2.0307   -0.8986 C   0  0  0  0  0  0  0  0  0  0  0  0
   -6.4812   -3.7256   -2.4945 H   0  0  0  0  0  0  0  0  0  0  0  0
   -6.8357   -2.1588   -3.2610 H   0  0  0  0  0  0  0  0  0  0  0  0
   -6.1352   -3.4821   -4.2234 H   0  0  0  0  0  0  0  0  0  0  0  0
   -4.2657   -2.9001   -2.0171 H   0  0  0  0  0  0  0  0  0  0  0  0
   -4.6646   -1.2714   -4.5469 H   0  0  0  0  0  0  0  0  0  0  0  0
   -0.8768   -3.6222   -1.8490 H   0  0  0  0  0  0  0  0  0  0  0  0
    0.0395   -4.7211   -5.2925 H   0  0  0  0  0  0  0  0  0  0  0  0
    0.1814   -5.0639   -3.5528 H   0  0  0  0  0  0  0  0  0  0  0  0
   -2.1741   -4.8329   -6.4103 H   0  0  0  0  0  0  0  0  0  0  0  0
   -3.6200   -5.3194   -5.4925 H   0  0  0  0  0  0  0  0  0  0  0  0
   -3.5987   -2.8734   -5.8602 H   0  0  0  0  0  0  0  0  0  0  0  0
   -3.4411   -3.2520   -4.1289 H   0  0  0  0  0  0  0  0  0  0  0  0
   -2.0654   -0.1996   -6.5506 H   0  0  0  0  0  0  0  0  0  0  0  0
   -3.5731   -0.9621   -5.9903 H   0  0  0  0  0  0  0  0  0  0  0  0
   -3.0588    0.5995   -5.3084 H   0  0  0  0  0  0  0  0  0  0  0  0
    1.8989   -1.3810   -8.9746 H   0  0  0  0  0  0  0  0  0  0  0  0
    0.4003   -0.5115   -9.3825 H   0  0  0  0  0  0  0  0  0  0  0  0
    1.9514    0.3605   -9.3390 H   0  0  0  0  0  0  0  0  0  0  0  0
    2.6862    2.7676   -6.5934 H   0  0  0  0  0  0  0  0  0  0  0  0
    2.4977    2.0995   -8.2325 H   0  0  0  0  0  0  0  0  0  0  0  0
    0.0150    2.0204   -7.8646 H   0  0  0  0  0  0  0  0  0  0  0  0
    0.2563    2.8124   -6.2889 H   0  0  0  0  0  0  0  0  0  0  0  0
    0.5315    0.4793   -3.0540 H   0  0  0  0  0  0  0  0  0  0  0  0
   -0.8850   -7.2952   -3.9229 H   0  0  0  0  0  0  0  0  0  0  0  0
   -2.4748   -7.3982   -4.7168 H   0  0  0  0  0  0  0  0  0  0  0  0
   -1.0370   -6.9383   -5.6600 H   0  0  0  0  0  0  0  0  0  0  0  0
    1.4461   -3.1129   -3.8284 H   0  0  0  0  0  0  0  0  0  0  0  0
    0.7954   -2.0559   -5.1041 H   0  0  0  0  0  0  0  0  0  0  0  0
    0.6359   -1.5888   -3.3940 H   0  0  0  0  0  0  0  0  0  0  0  0
   -3.3877   -2.7805   -0.7225 H   0  0  0  0  0  0  0  0  0  0  0  0
   -1.7707   -2.2171   -0.2367 H   0  0  0  0  0  0  0  0  0  0  0  0
   -3.0220   -1.0387   -0.6994 H   0  0  0  0  0  0  0  0  0  0  0  0
   -0.4573    4.7345   -8.1512 O   0  5  0  0  0  0  0  0  0  0  0  0
  1  2  1  0  0  0  0
  1 36  1  0  0  0  0
  1 37  1  0  0  0  0
  1 38  1  0  0  0  0
  2  3  2  0  0  0  0
  2 39  1  0  0  0  0
  3  4  1  0  0  0  0
  3 40  1  0  0  0  0
  4  5  1  0  0  0  0
  4 16  1  0  0  0  0
  4  6  1  0  0  0  0
  6  7  2  0  0  0  0
  6 35  1  0  0  0  0
  7  8  1  0  0  0  0
  7 41  1  0  0  0  0
  8 14  1  0  0  0  0
  8  9  1  0  0  0  0
  8 34  1  0  0  0  0
  9 10  1  0  0  0  0
  9 42  1  0  0  0  0
  9 43  1  0  0  0  0
 10 11  1  0  0  0  0
 10 12  1  0  0  0  0
 10 33  1  0  0  0  0
 12 13  1  0  0  0  0
 12 44  1  0  0  0  0
 12 45  1  0  0  0  0
 13 14  1  0  0  0  0
 13 46  1  0  0  0  0
 13 47  1  0  0  0  0
 14 15  1  0  0  0  0
 14 16  1  0  0  0  0
 16 17  1  0  0  0  0
 16 18  1  0  0  0  0
 17 48  1  0  0  0  0
 17 49  1  0  0  0  0
 17 50  1  0  0  0  0
 18 19  2  0  0  0  0
 18 32  1  0  0  0  0
 19 25  1  0  0  0  0
 19 20  1  0  0  0  0
 20 21  2  0  0  0  0
 20 22  1  0  0  0  0
 22 23  1  0  0  0  0
 22 24  1  0  0  0  0
 22 28  1  0  0  0  0
 24 25  1  0  0  0  0
 24 27  1  0  0  0  0
 25 26  2  0  0  0  0
 27 51  1  0  0  0  0
 27 52  1  0  0  0  0
 27 53  1  0  0  0  0
 28 29  1  0  0  0  0
 28 54  1  0  0  0  0
 28 55  1  0  0  0  0
 29 30  1  0  0  0  0
 29 56  1  0  0  0  0
 29 57  1  0  0  0  0
 30 31  2  0  0  0  0
 30 68  1  0  0  0  0
 32 58  1  0  0  0  0
 33 59  1  0  0  0  0
 33 60  1  0  0  0  0
 33 61  1  0  0  0  0
 34 62  1  0  0  0  0
 34 63  1  0  0  0  0
 34 64  1  0  0  0  0
 35 65  1  0  0  0  0
 35 66  1  0  0  0  0
 35 67  1  0  0  0  0
M  CHG  1  68  -1
M  END
$$$$
ZINC03915990
  -OEChem-08230709463D

 68 70  0     1  0  0  0  0  0999 V2000
   -6.1500   -3.0059   -3.2431 C   0  0  0  0  0  0  0  0  0  0  0  0
   -4.7647   -2.5236   -2.8979 C   0  0  0  0  0  0  0  0  0  0  0  0
   -4.1656   -1.6478   -3.6661 C   0  0  0  0  0  0  0  0  0  0  0  0
   -2.7802   -1.1656   -3.3210 C   0  0  1  0  0  0  0  0  0  0  0  0
   -2.8447   -0.1724   -2.8765 H   0  0  0  0  0  0  0  0  0  0  0  0
   -2.1589   -2.1078   -2.3323 C   0  0  0  0  0  0  0  0  0  0  0  0
   -1.2530   -2.9845   -2.6353 C   0  0  0  0  0  0  0  0  0  0  0  0
   -0.6994   -3.1609   -4.0154 C   0  0  1  0  0  0  0  0  0  0  0  0
   -0.4551   -4.6325   -4.3253 C   0  0  0  0  0  0  0  0  0  0  0  0
   -1.7846   -5.3882   -4.3642 C   0  0  1  0  0  0  0  0  0  0  0  0
   -2.2778   -5.3084   -3.3954 H   0  0  0  0  0  0  0  0  0  0  0  0
   -2.6775   -4.7739   -5.4454 C   0  0  0  0  0  0  0  0  0  0  0  0
   -2.9503   -3.3097   -5.1004 C   0  0  0  0  0  0  0  0  0  0  0  0
   -1.6322   -2.5330   -5.0494 C   0  0  1  0  0  0  0  0  0  0  0  0
   -1.1532   -2.5232   -6.0285 H   0  0  0  0  0  0  0  0  0  0  0  0
   -1.9366   -1.0956   -4.5957 C   0  0  1  0  0  0  0  0  0  0  0  0
   -2.7144   -0.3617   -5.6899 C   0  0  0  0  0  0  0  0  0  0  0  0
   -0.6475   -0.3679   -4.3131 C   0  0  0  0  0  0  0  0  0  0  0  0
    0.2292   -0.0944   -5.3409 C   0  0  1  0  0  0  0  0  0  0  0  0
    1.4274    0.7469   -5.2595 C   0  0  0  0  0  0  0  0  0  0  0  0
    1.8483    1.3389   -4.2871 O   0  0  0  0  0  0  0  0  0  0  0  0
    2.0263    0.7176   -6.6485 C   0  0  1  0  0  0  0  0  0  0  0  0
    3.0312    0.2969   -6.6131 H   0  0  0  0  0  0  0  0  0  0  0  0
    1.1546   -0.1326   -7.4626 N   0  0  0  0  0  0  0  0  0  0  0  0
    0.1354   -0.5922   -6.7202 C   0  0  0  0  0  0  0  0  0  0  0  0
   -0.7454   -1.3225   -7.1330 O   0  0  0  0  0  0  0  0  0  0  0  0
    1.3648   -0.4355   -8.8804 C   0  0  0  0  0  0  0  0  0  0  0  0
    2.0707    2.1321   -7.2301 C   0  0  0  0  0  0  0  0  0  0  0  0
    0.6517    2.7002   -7.2985 C   0  0  0  0  0  0  0  0  0  0  0  0
    0.6811    4.0446   -7.9787 C   0  0  0  0  0  0  0  0  0  0  0  0
    1.7294    4.5015   -8.3688 O   0  0  0  0  0  0  0  0  0  0  0  0
   -0.3534    0.0136   -3.0613 O   0  0  0  0  0  0  0  0  0  0  0  0
   -1.5268   -6.8608   -4.6894 C   0  0  0  0  0  0  0  0  0  0  0  0
    0.6408   -2.4269   -4.0909 C   0  0  0  0  0  0  0  0  0  0  0  0
   -2.6165   -2.0307   -0.8986 C   0  0  0  0  0  0  0  0  0  0  0  0
   -6.4812   -3.7256   -2.4945 H   0  0  0  0  0  0  0  0  0  0  0  0
   -6.8357   -2.1588   -3.2610 H   0  0  0  0  0  0  0  0  0  0  0  0
   -6.1352   -3.4821   -4.2234 H   0  0  0  0  0  0  0  0  0  0  0  0
   -4.2657   -2.9001   -2.0171 H   0  0  0  0  0  0  0  0  0  0  0  0
   -4.6646   -1.2714   -4.5469 H   0  0  0  0  0  0  0  0  0  0  0  0
   -0.8768   -3.6222   -1.8490 H   0  0  0  0  0  0  0  0  0  0  0  0
    0.0395   -4.7211   -5.2925 H   0  0  0  0  0  0  0  0  0  0  0  0
    0.1814   -5.0639   -3.5528 H   0  0  0  0  0  0  0  0  0  0  0  0
   -2.1741   -4.8329   -6.4103 H   0  0  0  0  0  0  0  0  0  0  0  0
   -3.6200   -5.3194   -5.4925 H   0  0  0  0  0  0  0  0  0  0  0  0
   -3.5987   -2.8734   -5.8602 H   0  0  0  0  0  0  0  0  0  0  0  0
   -3.4411   -3.2520   -4.1289 H   0  0  0  0  0  0  0  0  0  0  0  0
   -2.0654   -0.1996   -6.5506 H   0  0  0  0  0  0  0  0  0  0  0  0
   -3.5731   -0.9621   -5.9903 H   0  0  0  0  0  0  0  0  0  0  0  0
   -3.0588    0.5995   -5.3084 H   0  0  0  0  0  0  0  0  0  0  0  0
    1.8989   -1.3810   -8.9746 H   0  0  0  0  0  0  0  0  0  0  0  0
    0.4003   -0.5115   -9.3825 H   0  0  0  0  0  0  0  0  0  0  0  0
    1.9514    0.3605   -9.3390 H   0  0  0  0  0  0  0  0  0  0  0  0
    2.6862    2.7676   -6.5934 H   0  0  0  0  0  0  0  0  0  0  0  0
    2.4977    2.0995   -8.2325 H   0  0  0  0  0  0  0  0  0  0  0  0
    0.0150    2.0204   -7.8646 H   0  0  0  0  0  0  0  0  0  0  0  0
    0.2563    2.8124   -6.2889 H   0  0  0  0  0  0  0  0  0  0  0  0
   -0.2630    0.7728   -5.2653 H   0  0  0  0  0  0  0  0  0  0  0  0
   -0.8850   -7.2952   -3.9229 H   0  0  0  0  0  0  0  0  0  0  0  0
   -2.4748   -7.3982   -4.7168 H   0  0  0  0  0  0  0  0  0  0  0  0
   -1.0370   -6.9383   -5.6600 H   0  0  0  0  0  0  0  0  0  0  0  0
    1.4461   -3.1129   -3.8284 H   0  0  0  0  0  0  0  0  0  0  0  0
    0.7954   -2.0559   -5.1041 H   0  0  0  0  0  0  0  0  0  0  0  0
    0.6359   -1.5888   -3.3940 H   0  0  0  0  0  0  0  0  0  0  0  0
   -3.3877   -2.7805   -0.7225 H   0  0  0  0  0  0  0  0  0  0  0  0
   -1.7707   -2.2171   -0.2367 H   0  0  0  0  0  0  0  0  0  0  0  0
   -3.0220   -1.0387   -0.6994 H   0  0  0  0  0  0  0  0  0  0  0  0
   -0.4573    4.7345   -8.1512 O   0  5  0  0  0  0  0  0  0  0  0  0
  1  2  1  0  0  0  0
  1 36  1  0  0  0  0
  1 37  1  0  0  0  0
  1 38  1  0  0  0  0
  2  3  2  0  0  0  0
  2 39  1  0  0  0  0
  3  4  1  0  0  0  0
  3 40  1  0  0  0  0
  4  5  1  0  0  0  0
  4 16  1  0  0  0  0
  4  6  1  0  0  0  0
  6  7  2  0  0  0  0
  6 35  1  0  0  0  0
  7  8  1  0  0  0  0
  7 41  1  0  0  0  0
  8 14  1  0  0  0  0
  8  9  1  0  0  0  0
  8 34  1  0  0  0  0
  9 10  1  0  0  0  0
  9 42  1  0  0  0  0
  9 43  1  0  0  0  0
 10 11  1  0  0  0  0
 10 12  1  0  0  0  0
 10 33  1  0  0  0  0
 12 13  1  0  0  0  0
 12 44  1  0  0  0  0
 12 45  1  0  0  0  0
 13 14  1  0  0  0  0
 13 46  1  0  0  0  0
 13 47  1  0  0  0  0
 14 15  1  0  0  0  0
 14 16  1  0  0  0  0
 16 17  1  0  0  0  0
 16 18  1  0  0  0  0
 17 48  1  0  0  0  0
 17 49  1  0  0  0  0
 17 50  1  0  0  0  0
 18 19  1  0  0  0  0
 18 32  2  0  0  0  0
 19 58  1  0  0  0  0
 19 25  1  0  0  0  0
 19 20  1  0  0  0  0
 20 22  1  0  0  0  0
 20 21  2  0  0  0  0
 22 23  1  0  0  0  0
 22 24  1  0  0  0  0
 22 28  1  0  0  0  0
 24 25  1  0  0  0  0
 24 27  1  0  0  0  0
 25 26  2  0  0  0  0
 27 51  1  0  0  0  0
 27 52  1  0  0  0  0
 27 53  1  0  0  0  0
 28 29  1  0  0  0  0
 28 54  1  0  0  0  0
 28 55  1  0  0  0  0
 29 30  1  0  0  0  0
 29 56  1  0  0  0  0
 29 57  1  0  0  0  0
 30 31  2  0  0  0  0
 30 68  1  0  0  0  0
 33 59  1  0  0  0  0
 33 60  1  0  0  0  0
 33 61  1  0  0  0  0
 34 62  1  0  0  0  0
 34 63  1  0  0  0  0
 34 64  1  0  0  0  0
 35 65  1  0  0  0  0
 35 66  1  0  0  0  0
 35 67  1  0  0  0  0
M  CHG  1  68  -1
M  END
$$$$
ZINC03915990
  -OEChem-08230709463D

 68 70  0     1  0  0  0  0  0999 V2000
   -6.1500   -3.0059   -3.2431 C   0  0  0  0  0  0  0  0  0  0  0  0
   -4.7647   -2.5235   -2.8979 C   0  0  0  0  0  0  0  0  0  0  0  0
   -4.1656   -1.6478   -3.6661 C   0  0  0  0  0  0  0  0  0  0  0  0
   -2.7802   -1.1656   -3.3210 C   0  0  1  0  0  0  0  0  0  0  0  0
   -2.8447   -0.1723   -2.8765 H   0  0  0  0  0  0  0  0  0  0  0  0
   -2.1589   -2.1077   -2.3323 C   0  0  0  0  0  0  0  0  0  0  0  0
   -1.2530   -2.9844   -2.6353 C   0  0  0  0  0  0  0  0  0  0  0  0
   -0.6994   -3.1609   -4.0154 C   0  0  1  0  0  0  0  0  0  0  0  0
   -0.4551   -4.6325   -4.3252 C   0  0  0  0  0  0  0  0  0  0  0  0
   -1.7846   -5.3882   -4.3641 C   0  0  1  0  0  0  0  0  0  0  0  0
   -2.2778   -5.3084   -3.3953 H   0  0  0  0  0  0  0  0  0  0  0  0
   -2.6775   -4.7739   -5.4453 C   0  0  0  0  0  0  0  0  0  0  0  0
   -2.9503   -3.3097   -5.1004 C   0  0  0  0  0  0  0  0  0  0  0  0
   -1.6322   -2.5330   -5.0494 C   0  0  1  0  0  0  0  0  0  0  0  0
   -1.1532   -2.5232   -6.0285 H   0  0  0  0  0  0  0  0  0  0  0  0
   -1.9366   -1.0956   -4.5957 C   0  0  1  0  0  0  0  0  0  0  0  0
   -2.7144   -0.3617   -5.6899 C   0  0  0  0  0  0  0  0  0  0  0  0
   -0.6475   -0.3679   -4.3131 C   0  0  0  0  0  0  0  0  0  0  0  0
    0.2292   -0.0944   -5.3409 C   0  0  0  0  0  0  0  0  0  0  0  0
    1.4274    0.7469   -5.2595 C   0  0  0  0  0  0  0  0  0  0  0  0
    1.8481    1.3392   -4.2872 O   0  0  0  0  0  0  0  0  0  0  0  0
    2.0263    0.7176   -6.6485 C   0  0  1  0  0  0  0  0  0  0  0  0
    3.0312    0.2969   -6.6131 H   0  0  0  0  0  0  0  0  0  0  0  0
    1.1546   -0.1326   -7.4626 N   0  0  0  0  0  0  0  0  0  0  0  0
    0.1354   -0.5922   -6.7202 C   0  0  0  0  0  0  0  0  0  0  0  0
   -0.7454   -1.3225   -7.1330 O   0  0  0  0  0  0  0  0  0  0  0  0
    1.3648   -0.4355   -8.8804 C   0  0  0  0  0  0  0  0  0  0  0  0
    2.0707    2.1321   -7.2301 C   0  0  0  0  0  0  0  0  0  0  0  0
    0.6517    2.7002   -7.2985 C   0  0  0  0  0  0  0  0  0  0  0  0
    0.6811    4.0446   -7.9787 C   0  0  0  0  0  0  0  0  0  0  0  0
    1.7294    4.5015   -8.3688 O   0  0  0  0  0  0  0  0  0  0  0  0
   -0.3534    0.0136   -3.0613 O   0  0  0  0  0  0  0  0  0  0  0  0
   -1.5268   -6.8608   -4.6893 C   0  0  0  0  0  0  0  0  0  0  0  0
    0.6408   -2.4269   -4.0908 C   0  0  0  0  0  0  0  0  0  0  0  0
   -2.6166   -2.0306   -0.8986 C   0  0  0  0  0  0  0  0  0  0  0  0
   -6.4812   -3.7255   -2.4945 H   0  0  0  0  0  0  0  0  0  0  0  0
   -6.8357   -2.1587   -3.2611 H   0  0  0  0  0  0  0  0  0  0  0  0
   -6.1352   -3.4821   -4.2234 H   0  0  0  0  0  0  0  0  0  0  0  0
   -4.2657   -2.9000   -2.0171 H   0  0  0  0  0  0  0  0  0  0  0  0
   -4.6646   -1.2714   -4.5469 H   0  0  0  0  0  0  0  0  0  0  0  0
   -0.8769   -3.6221   -1.8489 H   0  0  0  0  0  0  0  0  0  0  0  0
    0.0395   -4.7211   -5.2924 H   0  0  0  0  0  0  0  0  0  0  0  0
    0.1814   -5.0639   -3.5527 H   0  0  0  0  0  0  0  0  0  0  0  0
   -2.1741   -4.8329   -6.4102 H   0  0  0  0  0  0  0  0  0  0  0  0
   -3.6200   -5.3194   -5.4925 H   0  0  0  0  0  0  0  0  0  0  0  0
   -3.5987   -2.8734   -5.8602 H   0  0  0  0  0  0  0  0  0  0  0  0
   -3.4411   -3.2520   -4.1289 H   0  0  0  0  0  0  0  0  0  0  0  0
   -2.0654   -0.1996   -6.5506 H   0  0  0  0  0  0  0  0  0  0  0  0
   -3.5731   -0.9621   -5.9903 H   0  0  0  0  0  0  0  0  0  0  0  0
   -3.0588    0.5995   -5.3085 H   0  0  0  0  0  0  0  0  0  0  0  0
    1.8989   -1.3810   -8.9746 H   0  0  0  0  0  0  0  0  0  0  0  0
    0.4003   -0.5115   -9.3825 H   0  0  0  0  0  0  0  0  0  0  0  0
    1.9514    0.3605   -9.3390 H   0  0  0  0  0  0  0  0  0  0  0  0
    2.6862    2.7676   -6.5934 H   0  0  0  0  0  0  0  0  0  0  0  0
    2.4977    2.0995   -8.2325 H   0  0  0  0  0  0  0  0  0  0  0  0
    0.0150    2.0204   -7.8646 H   0  0  0  0  0  0  0  0  0  0  0  0
    0.2563    2.8124   -6.2889 H   0  0  0  0  0  0  0  0  0  0  0  0
    1.2436    1.1728   -3.5082 H   0  0  0  0  0  0  0  0  0  0  0  0
   -0.8850   -7.2952   -3.9228 H   0  0  0  0  0  0  0  0  0  0  0  0
   -2.4748   -7.3982   -4.7167 H   0  0  0  0  0  0  0  0  0  0  0  0
   -1.0370   -6.9383   -5.6599 H   0  0  0  0  0  0  0  0  0  0  0  0
    1.4461   -3.1129   -3.8283 H   0  0  0  0  0  0  0  0  0  0  0  0
    0.7954   -2.0559   -5.1041 H   0  0  0  0  0  0  0  0  0  0  0  0
    0.6359   -1.5888   -3.3940 H   0  0  0  0  0  0  0  0  0  0  0  0
   -3.3878   -2.7804   -0.7225 H   0  0  0  0  0  0  0  0  0  0  0  0
   -1.7708   -2.2170   -0.2367 H   0  0  0  0  0  0  0  0  0  0  0  0
   -3.0221   -1.0386   -0.6994 H   0  0  0  0  0  0  0  0  0  0  0  0
   -0.4573    4.7345   -8.1512 O   0  5  0  0  0  0  0  0  0  0  0  0
  1  2  1  0  0  0  0
  1 36  1  0  0  0  0
  1 37  1  0  0  0  0
  1 38  1  0  0  0  0
  2  3  2  0  0  0  0
  2 39  1  0  0  0  0
  3  4  1  0  0  0  0
  3 40  1  0  0  0  0
  4  5  1  0  0  0  0
  4 16  1  0  0  0  0
  4  6  1  0  0  0  0
  6  7  2  0  0  0  0
  6 35  1  0  0  0  0
  7  8  1  0  0  0  0
  7 41  1  0  0  0  0
  8 14  1  0  0  0  0
  8  9  1  0  0  0  0
  8 34  1  0  0  0  0
  9 10  1  0  0  0  0
  9 42  1  0  0  0  0
  9 43  1  0  0  0  0
 10 11  1  0  0  0  0
 10 12  1  0  0  0  0
 10 33  1  0  0  0  0
 12 13  1  0  0  0  0
 12 44  1  0  0  0  0
 12 45  1  0  0  0  0
 13 14  1  0  0  0  0
 13 46  1  0  0  0  0
 13 47  1  0  0  0  0
 14 15  1  0  0  0  0
 14 16  1  0  0  0  0
 16 17  1  0  0  0  0
 16 18  1  0  0  0  0
 17 48  1  0  0  0  0
 17 49  1  0  0  0  0
 17 50  1  0  0  0  0
 18 19  1  0  0  0  0
 18 32  2  0  0  0  0
 19 25  1  0  0  0  0
 19 20  2  0  0  0  0
 20 22  1  0  0  0  0
 20 21  1  0  0  0  0
 21 58  1  0  0  0  0
 22 23  1  0  0  0  0
 22 24  1  0  0  0  0
 22 28  1  0  0  0  0
 24 25  1  0  0  0  0
 24 27  1  0  0  0  0
 25 26  2  0  0  0  0
 27 51  1  0  0  0  0
 27 52  1  0  0  0  0
 27 53  1  0  0  0  0
 28 29  1  0  0  0  0
 28 54  1  0  0  0  0
 28 55  1  0  0  0  0
 29 30  1  0  0  0  0
 29 56  1  0  0  0  0
 29 57  1  0  0  0  0
 30 31  2  0  0  0  0
 30 68  1  0  0  0  0
 33 59  1  0  0  0  0
 33 60  1  0  0  0  0
 33 61  1  0  0  0  0
 34 62  1  0  0  0  0
 34 63  1  0  0  0  0
 34 64  1  0  0  0  0
 35 65  1  0  0  0  0
 35 66  1  0  0  0  0
 35 67  1  0  0  0  0
M  CHG  1  68  -1
M  END
$$$$
ZINC03915990
  -OEChem-08230709463D

 68 70  0     1  0  0  0  0  0999 V2000
   -1.2783    0.3567    1.8072 C   0  0  0  0  0  0  0  0  0  0  0  0
   -1.7484    0.1599    0.3891 C   0  0  0  0  0  0  0  0  0  0  0  0
   -0.9129   -0.2683   -0.5245 C   0  0  0  0  0  0  0  0  0  0  0  0
   -1.3829   -0.4650   -1.9427 C   0  0  1  0  0  0  0  0  0  0  0  0
   -1.5416   -1.5278   -2.1256 H   0  0  0  0  0  0  0  0  0  0  0  0
   -2.6772    0.2673   -2.1424 C   0  0  0  0  0  0  0  0  0  0  0  0
   -2.7840    1.3933   -2.7763 C   0  0  0  0  0  0  0  0  0  0  0  0
   -1.6250    2.1040   -3.4040 C   0  0  1  0  0  0  0  0  0  0  0  0
   -1.7491    3.6130   -3.2349 C   0  0  0  0  0  0  0  0  0  0  0  0
   -1.6493    3.9851   -1.7545 C   0  0  1  0  0  0  0  0  0  0  0  0
   -2.4540    3.5004   -1.2017 H   0  0  0  0  0  0  0  0  0  0  0  0
   -0.2982    3.5138   -1.2105 C   0  0  0  0  0  0  0  0  0  0  0  0
   -0.2038    1.9939   -1.3463 C   0  0  0  0  0  0  0  0  0  0  0  0
   -0.3076    1.5960   -2.8208 C   0  0  1  0  0  0  0  0  0  0  0  0
    0.5322    1.9977   -3.3879 H   0  0  0  0  0  0  0  0  0  0  0  0
   -0.3171    0.0607   -2.9066 C   0  0  1  0  0  0  0  0  0  0  0  0
    1.0546   -0.4879   -2.5086 C   0  0  0  0  0  0  0  0  0  0  0  0
   -0.6475   -0.3679   -4.3131 C   0  0  0  0  0  0  0  0  0  0  0  0
    0.2292   -0.0944   -5.3409 C   0  0  0  0  0  0  0  0  0  0  0  0
    1.4274    0.7469   -5.2595 C   0  0  0  0  0  0  0  0  0  0  0  0
    1.8483    1.3389   -4.2871 O   0  0  0  0  0  0  0  0  0  0  0  0
    2.0263    0.7176   -6.6485 C   0  0  1  0  0  0  0  0  0  0  0  0
    3.0312    0.2969   -6.6131 H   0  0  0  0  0  0  0  0  0  0  0  0
    1.1546   -0.1326   -7.4626 N   0  0  0  0  0  0  0  0  0  0  0  0
    0.1354   -0.5922   -6.7202 C   0  0  0  0  0  0  0  0  0  0  0  0
   -0.7454   -1.3225   -7.1330 O   0  0  0  0  0  0  0  0  0  0  0  0
    1.3648   -0.4355   -8.8804 C   0  0  0  0  0  0  0  0  0  0  0  0
    2.0707    2.1321   -7.2301 C   0  0  0  0  0  0  0  0  0  0  0  0
    0.6517    2.7002   -7.2985 C   0  0  0  0  0  0  0  0  0  0  0  0
    0.6811    4.0446   -7.9787 C   0  0  0  0  0  0  0  0  0  0  0  0
    1.7294    4.5015   -8.3688 O   0  0  0  0  0  0  0  0  0  0  0  0
   -1.7948   -1.0156   -4.5647 O   0  0  0  0  0  0  0  0  0  0  0  0
   -1.7617    5.5031   -1.5997 C   0  0  0  0  0  0  0  0  0  0  0  0
   -1.6239    1.7884   -4.9010 C   0  0  0  0  0  0  0  0  0  0  0  0
   -3.9305   -0.3435   -1.5704 C   0  0  0  0  0  0  0  0  0  0  0  0
   -2.1069    0.7146    2.4183 H   0  0  0  0  0  0  0  0  0  0  0  0
   -0.9166   -0.5914    2.2050 H   0  0  0  0  0  0  0  0  0  0  0  0
   -0.4714    1.0893    1.8242 H   0  0  0  0  0  0  0  0  0  0  0  0
   -2.7742    0.3721    0.1259 H   0  0  0  0  0  0  0  0  0  0  0  0
    0.1129   -0.4804   -0.2613 H   0  0  0  0  0  0  0  0  0  0  0  0
   -3.7627    1.8430   -2.8563 H   0  0  0  0  0  0  0  0  0  0  0  0
   -0.9484    4.1057   -3.7863 H   0  0  0  0  0  0  0  0  0  0  0  0
   -2.7123    3.9425   -3.6245 H   0  0  0  0  0  0  0  0  0  0  0  0
    0.5062    3.9808   -1.7787 H   0  0  0  0  0  0  0  0  0  0  0  0
   -0.2113    3.7924   -0.1603 H   0  0  0  0  0  0  0  0  0  0  0  0
    0.7509    1.6532   -0.9455 H   0  0  0  0  0  0  0  0  0  0  0  0
   -1.0171    1.5294   -0.7889 H   0  0  0  0  0  0  0  0  0  0  0  0
    1.7881   -0.2187   -3.2687 H   0  0  0  0  0  0  0  0  0  0  0  0
    1.3519   -0.0627   -1.5500 H   0  0  0  0  0  0  0  0  0  0  0  0
    1.0010   -1.5733   -2.4236 H   0  0  0  0  0  0  0  0  0  0  0  0
    1.8989   -1.3810   -8.9746 H   0  0  0  0  0  0  0  0  0  0  0  0
    0.4003   -0.5115   -9.3825 H   0  0  0  0  0  0  0  0  0  0  0  0
    1.9514    0.3605   -9.3390 H   0  0  0  0  0  0  0  0  0  0  0  0
    2.6862    2.7676   -6.5934 H   0  0  0  0  0  0  0  0  0  0  0  0
    2.4977    2.0995   -8.2325 H   0  0  0  0  0  0  0  0  0  0  0  0
    0.0150    2.0204   -7.8646 H   0  0  0  0  0  0  0  0  0  0  0  0
    0.2563    2.8124   -6.2889 H   0  0  0  0  0  0  0  0  0  0  0  0
   -1.8531   -1.2233   -5.5411 H   0  0  0  0  0  0  0  0  0  0  0  0
   -2.7210    5.8385   -1.9940 H   0  0  0  0  0  0  0  0  0  0  0  0
   -1.6904    5.7670   -0.5445 H   0  0  0  0  0  0  0  0  0  0  0  0
   -0.9540    5.9854   -2.1502 H   0  0  0  0  0  0  0  0  0  0  0  0
   -2.1998    2.5460   -5.4324 H   0  0  0  0  0  0  0  0  0  0  0  0
   -0.5986    1.7855   -5.2710 H   0  0  0  0  0  0  0  0  0  0  0  0
   -2.0725    0.8088   -5.0662 H   0  0  0  0  0  0  0  0  0  0  0  0
   -4.1396    0.1004   -0.5972 H   0  0  0  0  0  0  0  0  0  0  0  0
   -4.7668   -0.1542   -2.2434 H   0  0  0  0  0  0  0  0  0  0  0  0
   -3.7916   -1.4187   -1.4570 H   0  0  0  0  0  0  0  0  0  0  0  0
   -0.4573    4.7345   -8.1512 O   0  5  0  0  0  0  0  0  0  0  0  0
  1  2  1  0  0  0  0
  1 36  1  0  0  0  0
  1 37  1  0  0  0  0
  1 38  1  0  0  0  0
  2  3  2  0  0  0  0
  2 39  1  0  0  0  0
  3  4  1  0  0  0  0
  3 40  1  0  0  0  0
  4  5  1  0  0  0  0
  4 16  1  0  0  0  0
  4  6  1  0  0  0  0
  6  7  2  0  0  0  0
  6 35  1  0  0  0  0
  7  8  1  0  0  0  0
  7 41  1  0  0  0  0
  8 14  1  0  0  0  0
  8  9  1  0  0  0  0
  8 34  1  0  0  0  0
  9 10  1  0  0  0  0
  9 42  1  0  0  0  0
  9 43  1  0  0  0  0
 10 11  1  0  0  0  0
 10 12  1  0  0  0  0
 10 33  1  0  0  0  0
 12 13  1  0  0  0  0
 12 44  1  0  0  0  0
 12 45  1  0  0  0  0
 13 14  1  0  0  0  0
 13 46  1  0  0  0  0
 13 47  1  0  0  0  0
 14 15  1  0  0  0  0
 14 16  1  0  0  0  0
 16 17  1  0  0  0  0
 16 18  1  0  0  0  0
 17 48  1  0  0  0  0
 17 49  1  0  0  0  0
 17 50  1  0  0  0  0
 18 19  2  0  0  0  0
 18 32  1  0  0  0  0
 19 25  1  0  0  0  0
 19 20  1  0  0  0  0
 20 21  2  0  0  0  0
 20 22  1  0  0  0  0
 22 23  1  0  0  0  0
 22 24  1  0  0  0  0
 22 28  1  0  0  0  0
 24 25  1  0  0  0  0
 24 27  1  0  0  0  0
 25 26  2  0  0  0  0
 27 51  1  0  0  0  0
 27 52  1  0  0  0  0
 27 53  1  0  0  0  0
 28 29  1  0  0  0  0
 28 54  1  0  0  0  0
 28 55  1  0  0  0  0
 29 30  1  0  0  0  0
 29 56  1  0  0  0  0
 29 57  1  0  0  0  0
 30 31  2  0  0  0  0
 30 68  1  0  0  0  0
 32 58  1  0  0  0  0
 33 59  1  0  0  0  0
 33 60  1  0  0  0  0
 33 61  1  0  0  0  0
 34 62  1  0  0  0  0
 34 63  1  0  0  0  0
 34 64  1  0  0  0  0
 35 65  1  0  0  0  0
 35 66  1  0  0  0  0
 35 67  1  0  0  0  0
M  CHG  1  68  -1
M  END
$$$$
ZINC03915990
  -OEChem-08230709463D

 68 70  0     1  0  0  0  0  0999 V2000
   -6.1500   -3.0059   -3.2431 C   0  0  0  0  0  0  0  0  0  0  0  0
   -4.7647   -2.5236   -2.8979 C   0  0  0  0  0  0  0  0  0  0  0  0
   -4.1656   -1.6478   -3.6661 C   0  0  0  0  0  0  0  0  0  0  0  0
   -2.7802   -1.1656   -3.3210 C   0  0  1  0  0  0  0  0  0  0  0  0
   -2.8447   -0.1724   -2.8765 H   0  0  0  0  0  0  0  0  0  0  0  0
   -2.1589   -2.1078   -2.3323 C   0  0  0  0  0  0  0  0  0  0  0  0
   -1.2530   -2.9845   -2.6353 C   0  0  0  0  0  0  0  0  0  0  0  0
   -0.6994   -3.1609   -4.0154 C   0  0  1  0  0  0  0  0  0  0  0  0
   -0.4551   -4.6325   -4.3253 C   0  0  0  0  0  0  0  0  0  0  0  0
   -1.7846   -5.3882   -4.3642 C   0  0  1  0  0  0  0  0  0  0  0  0
   -2.2778   -5.3084   -3.3954 H   0  0  0  0  0  0  0  0  0  0  0  0
   -2.6775   -4.7739   -5.4454 C   0  0  0  0  0  0  0  0  0  0  0  0
   -2.9503   -3.3097   -5.1004 C   0  0  0  0  0  0  0  0  0  0  0  0
   -1.6322   -2.5330   -5.0494 C   0  0  1  0  0  0  0  0  0  0  0  0
   -1.1532   -2.5232   -6.0285 H   0  0  0  0  0  0  0  0  0  0  0  0
   -1.9366   -1.0956   -4.5957 C   0  0  1  0  0  0  0  0  0  0  0  0
   -2.7144   -0.3617   -5.6899 C   0  0  0  0  0  0  0  0  0  0  0  0
   -0.6475   -0.3679   -4.3131 C   0  0  0  0  0  0  0  0  0  0  0  0
    0.2292   -0.0944   -5.3409 C   0  0  1  0  0  0  0  0  0  0  0  0
    1.4274    0.7469   -5.2595 C   0  0  0  0  0  0  0  0  0  0  0  0
    1.8483    1.3389   -4.2871 O   0  0  0  0  0  0  0  0  0  0  0  0
    2.0263    0.7176   -6.6485 C   0  0  1  0  0  0  0  0  0  0  0  0
    3.0312    0.2969   -6.6131 H   0  0  0  0  0  0  0  0  0  0  0  0
    1.1546   -0.1326   -7.4626 N   0  0  0  0  0  0  0  0  0  0  0  0
    0.1354   -0.5922   -6.7202 C   0  0  0  0  0  0  0  0  0  0  0  0
   -0.7454   -1.3225   -7.1330 O   0  0  0  0  0  0  0  0  0  0  0  0
    1.3648   -0.4355   -8.8804 C   0  0  0  0  0  0  0  0  0  0  0  0
    2.0707    2.1321   -7.2301 C   0  0  0  0  0  0  0  0  0  0  0  0
    0.6517    2.7002   -7.2985 C   0  0  0  0  0  0  0  0  0  0  0  0
    0.6811    4.0446   -7.9787 C   0  0  0  0  0  0  0  0  0  0  0  0
    1.7294    4.5015   -8.3688 O   0  0  0  0  0  0  0  0  0  0  0  0
   -0.3534    0.0136   -3.0613 O   0  0  0  0  0  0  0  0  0  0  0  0
   -1.5268   -6.8608   -4.6894 C   0  0  0  0  0  0  0  0  0  0  0  0
    0.6408   -2.4269   -4.0909 C   0  0  0  0  0  0  0  0  0  0  0  0
   -2.6165   -2.0307   -0.8986 C   0  0  0  0  0  0  0  0  0  0  0  0
   -6.4812   -3.7256   -2.4945 H   0  0  0  0  0  0  0  0  0  0  0  0
   -6.8357   -2.1588   -3.2610 H   0  0  0  0  0  0  0  0  0  0  0  0
   -6.1352   -3.4821   -4.2234 H   0  0  0  0  0  0  0  0  0  0  0  0
   -4.2657   -2.9001   -2.0171 H   0  0  0  0  0  0  0  0  0  0  0  0
   -4.6646   -1.2714   -4.5469 H   0  0  0  0  0  0  0  0  0  0  0  0
   -0.8768   -3.6222   -1.8490 H   0  0  0  0  0  0  0  0  0  0  0  0
    0.0395   -4.7211   -5.2925 H   0  0  0  0  0  0  0  0  0  0  0  0
    0.1814   -5.0639   -3.5528 H   0  0  0  0  0  0  0  0  0  0  0  0
   -2.1741   -4.8329   -6.4103 H   0  0  0  0  0  0  0  0  0  0  0  0
   -3.6200   -5.3194   -5.4925 H   0  0  0  0  0  0  0  0  0  0  0  0
   -3.5987   -2.8734   -5.8602 H   0  0  0  0  0  0  0  0  0  0  0  0
   -3.4411   -3.2520   -4.1289 H   0  0  0  0  0  0  0  0  0  0  0  0
   -2.0654   -0.1996   -6.5506 H   0  0  0  0  0  0  0  0  0  0  0  0
   -3.5731   -0.9621   -5.9903 H   0  0  0  0  0  0  0  0  0  0  0  0
   -3.0588    0.5995   -5.3084 H   0  0  0  0  0  0  0  0  0  0  0  0
    1.8989   -1.3810   -8.9746 H   0  0  0  0  0  0  0  0  0  0  0  0
    0.4003   -0.5115   -9.3825 H   0  0  0  0  0  0  0  0  0  0  0  0
    1.9514    0.3605   -9.3390 H   0  0  0  0  0  0  0  0  0  0  0  0
    2.6862    2.7676   -6.5934 H   0  0  0  0  0  0  0  0  0  0  0  0
    2.4977    2.0995   -8.2325 H   0  0  0  0  0  0  0  0  0  0  0  0
    0.0150    2.0204   -7.8646 H   0  0  0  0  0  0  0  0  0  0  0  0
    0.2563    2.8124   -6.2889 H   0  0  0  0  0  0  0  0  0  0  0  0
   -0.2630    0.7728   -5.2653 H   0  0  0  0  0  0  0  0  0  0  0  0
   -0.8850   -7.2952   -3.9229 H   0  0  0  0  0  0  0  0  0  0  0  0
   -2.4748   -7.3982   -4.7168 H   0  0  0  0  0  0  0  0  0  0  0  0
   -1.0370   -6.9383   -5.6600 H   0  0  0  0  0  0  0  0  0  0  0  0
    1.4461   -3.1129   -3.8284 H   0  0  0  0  0  0  0  0  0  0  0  0
    0.7954   -2.0559   -5.1041 H   0  0  0  0  0  0  0  0  0  0  0  0
    0.6359   -1.5888   -3.3940 H   0  0  0  0  0  0  0  0  0  0  0  0
   -3.3877   -2.7805   -0.7225 H   0  0  0  0  0  0  0  0  0  0  0  0
   -1.7707   -2.2171   -0.2367 H   0  0  0  0  0  0  0  0  0  0  0  0
   -3.0220   -1.0387   -0.6994 H   0  0  0  0  0  0  0  0  0  0  0  0
   -0.4573    4.7345   -8.1512 O   0  5  0  0  0  0  0  0  0  0  0  0
  1  2  1  0  0  0  0
  1 36  1  0  0  0  0
  1 37  1  0  0  0  0
  1 38  1  0  0  0  0
  2  3  2  0  0  0  0
  2 39  1  0  0  0  0
  3  4  1  0  0  0  0
  3 40  1  0  0  0  0
  4  5  1  0  0  0  0
  4 16  1  0  0  0  0
  4  6  1  0  0  0  0
  6  7  2  0  0  0  0
  6 35  1  0  0  0  0
  7  8  1  0  0  0  0
  7 41  1  0  0  0  0
  8 14  1  0  0  0  0
  8  9  1  0  0  0  0
  8 34  1  0  0  0  0
  9 10  1  0  0  0  0
  9 42  1  0  0  0  0
  9 43  1  0  0  0  0
 10 11  1  0  0  0  0
 10 12  1  0  0  0  0
 10 33  1  0  0  0  0
 12 13  1  0  0  0  0
 12 44  1  0  0  0  0
 12 45  1  0  0  0  0
 13 14  1  0  0  0  0
 13 46  1  0  0  0  0
 13 47  1  0  0  0  0
 14 15  1  0  0  0  0
 14 16  1  0  0  0  0
 16 17  1  0  0  0  0
 16 18  1  0  0  0  0
 17 48  1  0  0  0  0
 17 49  1  0  0  0  0
 17 50  1  0  0  0  0
 18 19  1  0  0  0  0
 18 32  2  0  0  0  0
 19 58  1  0  0  0  0
 19 25  1  0  0  0  0
 19 20  1  0  0  0  0
 20 22  1  0  0  0  0
 20 21  2  0  0  0  0
 22 23  1  0  0  0  0
 22 24  1  0  0  0  0
 22 28  1  0  0  0  0
 24 25  1  0  0  0  0
 24 27  1  0  0  0  0
 25 26  2  0  0  0  0
 27 51  1  0  0  0  0
 27 52  1  0  0  0  0
 27 53  1  0  0  0  0
 28 29  1  0  0  0  0
 28 54  1  0  0  0  0
 28 55  1  0  0  0  0
 29 30  1  0  0  0  0
 29 56  1  0  0  0  0
 29 57  1  0  0  0  0
 30 31  2  0  0  0  0
 30 68  1  0  0  0  0
 33 59  1  0  0  0  0
 33 60  1  0  0  0  0
 33 61  1  0  0  0  0
 34 62  1  0  0  0  0
 34 63  1  0  0  0  0
 34 64  1  0  0  0  0
 35 65  1  0  0  0  0
 35 66  1  0  0  0  0
 35 67  1  0  0  0  0
M  CHG  1  68  -1
M  END
$$$$
ZINC03917395
  -OEChem-08230709463D

 58 61  0     1  0  0  0  0  0999 V2000
   -3.7461   13.0367   -0.5441 C   0  0  0  0  0  0  0  0  0  0  0  0
   -4.3391   11.7772   -1.1788 C   0  0  2  0  0  0  0  0  0  0  0  0
   -4.1486   11.7597   -2.2519 H   0  0  0  0  0  0  0  0  0  0  0  0
   -5.8515   11.6767   -0.8885 C   0  0  0  0  0  0  0  0  0  0  0  0
   -6.1259   10.1969   -0.7213 C   0  0  0  0  0  0  0  0  0  0  0  0
   -7.3231    9.4981   -0.7631 C   0  0  0  0  0  0  0  0  0  0  0  0
   -7.3406    8.1325   -0.5817 C   0  0  0  0  0  0  0  0  0  0  0  0
   -6.1443    7.4474   -0.3547 C   0  0  0  0  0  0  0  0  0  0  0  0
   -4.9425    8.1554   -0.3082 C   0  0  0  0  0  0  0  0  0  0  0  0
   -4.9373    9.5246   -0.4969 C   0  0  0  0  0  0  0  0  0  0  0  0
   -3.7856   10.5074   -0.4984 C   0  0  0  0  0  0  0  0  0  0  0  0
   -2.6094    9.9456   -1.2995 C   0  0  0  0  0  0  0  0  0  0  0  0
   -3.3521   10.8194    0.9354 C   0  0  0  0  0  0  0  0  0  0  0  0
   -6.1522    5.9859   -0.1593 C   0  0  0  0  0  0  0  0  0  0  0  0
   -5.0383    5.3532    0.0514 N   0  0  0  0  0  0  0  0  0  0  0  0
   -5.0573    3.9903    0.3753 N   0  0  0  0  0  0  0  0  0  0  0  0
   -3.8643    3.3060    0.5699 C   0  0  0  0  0  0  0  0  0  0  0  0
   -3.8848    1.9508    0.8920 C   0  0  0  0  0  0  0  0  0  0  0  0
   -2.7090    1.2725    1.0838 C   0  0  0  0  0  0  0  0  0  0  0  0
   -1.4879    1.9426    0.9563 C   0  0  0  0  0  0  0  0  0  0  0  0
   -1.4707    3.3048    0.6390 C   0  0  0  0  0  0  0  0  0  0  0  0
   -2.6497    3.9762    0.4423 C   0  0  0  0  0  0  0  0  0  0  0  0
   -0.2221    1.2164    1.1618 C   0  0  0  0  0  0  0  0  0  0  0  0
   -0.2386    0.0341    1.4423 O   0  0  0  0  0  0  0  0  0  0  0  0
   -7.4532    5.2266   -0.2042 C   0  0  0  0  0  0  0  0  0  0  0  0
   -7.4941    3.9438   -1.0371 C   0  0  0  0  0  0  0  0  0  0  0  0
   -8.2112    5.2020   -1.5330 C   0  0  0  0  0  0  0  0  0  0  0  0
   -6.6559   12.2363   -2.0635 C   0  0  0  0  0  0  0  0  0  0  0  0
   -6.1961   12.4292    0.3983 C   0  0  0  0  0  0  0  0  0  0  0  0
   -3.9178   13.0166    0.5321 H   0  0  0  0  0  0  0  0  0  0  0  0
   -2.6745   13.0724   -0.7404 H   0  0  0  0  0  0  0  0  0  0  0  0
   -4.2234   13.9184   -0.9718 H   0  0  0  0  0  0  0  0  0  0  0  0
   -8.2477   10.0280   -0.9387 H   0  0  0  0  0  0  0  0  0  0  0  0
   -8.2759    7.5934   -0.6152 H   0  0  0  0  0  0  0  0  0  0  0  0
   -4.0150    7.6322   -0.1286 H   0  0  0  0  0  0  0  0  0  0  0  0
   -1.8179   10.6930   -1.3555 H   0  0  0  0  0  0  0  0  0  0  0  0
   -2.2293    9.0502   -0.8075 H   0  0  0  0  0  0  0  0  0  0  0  0
   -2.9428    9.6934   -2.3061 H   0  0  0  0  0  0  0  0  0  0  0  0
   -4.2224   11.1128    1.5224 H   0  0  0  0  0  0  0  0  0  0  0  0
   -2.8970    9.9335    1.3783 H   0  0  0  0  0  0  0  0  0  0  0  0
   -2.6281   11.6341    0.9269 H   0  0  0  0  0  0  0  0  0  0  0  0
   -5.9035    3.5245    0.4637 H   0  0  0  0  0  0  0  0  0  0  0  0
   -4.8280    1.4339    0.9903 H   0  0  0  0  0  0  0  0  0  0  0  0
   -2.7256    0.2217    1.3327 H   0  0  0  0  0  0  0  0  0  0  0  0
   -0.5296    3.8260    0.5443 H   0  0  0  0  0  0  0  0  0  0  0  0
   -2.6370    5.0269    0.1925 H   0  0  0  0  0  0  0  0  0  0  0  0
   -8.0436    5.2511    0.7117 H   0  0  0  0  0  0  0  0  0  0  0  0
   -6.5800    3.6490   -1.5525 H   0  0  0  0  0  0  0  0  0  0  0  0
   -8.1118    3.1245   -0.6693 H   0  0  0  0  0  0  0  0  0  0  0  0
   -9.3004    5.2098   -1.4913 H   0  0  0  0  0  0  0  0  0  0  0  0
   -7.7691    5.7352   -2.3746 H   0  0  0  0  0  0  0  0  0  0  0  0
   -7.7208   12.1138   -1.8660 H   0  0  0  0  0  0  0  0  0  0  0  0
   -6.4289   13.2952   -2.1878 H   0  0  0  0  0  0  0  0  0  0  0  0
   -6.3910   11.6987   -2.9740 H   0  0  0  0  0  0  0  0  0  0  0  0
   -5.6552   11.9859    1.2344 H   0  0  0  0  0  0  0  0  0  0  0  0
   -5.9104   13.4760    0.2948 H   0  0  0  0  0  0  0  0  0  0  0  0
   -7.2683   12.3618    0.5826 H   0  0  0  0  0  0  0  0  0  0  0  0
    0.9538    1.8621    1.0332 O   0  5  0  0  0  0  0  0  0  0  0  0
  1  2  1  0  0  0  0
  1 30  1  0  0  0  0
  1 31  1  0  0  0  0
  1 32  1  0  0  0  0
  2  3  1  0  0  0  0
  2 11  1  0  0  0  0
  2  4  1  0  0  0  0
  4  5  1  0  0  0  0
  4 28  1  0  0  0  0
  4 29  1  0  0  0  0
  5 10  2  0  0  0  0
  5  6  1  0  0  0  0
  6  7  2  0  0  0  0
  6 33  1  0  0  0  0
  7  8  1  0  0  0  0
  7 34  1  0  0  0  0
  8  9  2  0  0  0  0
  8 14  1  0  0  0  0
  9 10  1  0  0  0  0
  9 35  1  0  0  0  0
 10 11  1  0  0  0  0
 11 12  1  0  0  0  0
 11 13  1  0  0  0  0
 12 36  1  0  0  0  0
 12 37  1  0  0  0  0
 12 38  1  0  0  0  0
 13 39  1  0  0  0  0
 13 40  1  0  0  0  0
 13 41  1  0  0  0  0
 14 15  2  0  0  0  0
 14 25  1  0  0  0  0
 15 16  1  0  0  0  0
 16 17  1  0  0  0  0
 16 42  1  0  0  0  0
 17 22  2  0  0  0  0
 17 18  1  0  0  0  0
 18 19  2  0  0  0  0
 18 43  1  0  0  0  0
 19 20  1  0  0  0  0
 19 44  1  0  0  0  0
 20 21  2  0  0  0  0
 20 23  1  0  0  0  0
 21 22  1  0  0  0  0
 21 45  1  0  0  0  0
 22 46  1  0  0  0  0
 23 24  2  0  0  0  0
 23 58  1  0  0  0  0
 25 27  1  0  0  0  0
 25 26  1  0  0  0  0
 25 47  1  0  0  0  0
 26 27  1  0  0  0  0
 26 48  1  0  0  0  0
 26 49  1  0  0  0  0
 27 50  1  0  0  0  0
 27 51  1  0  0  0  0
 28 52  1  0  0  0  0
 28 53  1  0  0  0  0
 28 54  1  0  0  0  0
 29 55  1  0  0  0  0
 29 56  1  0  0  0  0
 29 57  1  0  0  0  0
M  CHG  1  58  -1
M  END
$$$$
ZINC03917397
  -OEChem-08230709463D

 54 56  0     0  0  0  0  0  0999 V2000
   -3.6781    3.3261    0.0375 C   0  0  0  0  0  0  0  0  0  0  0  0
   -2.3842    4.0988    0.0356 C   0  0  0  0  0  0  0  0  0  0  0  0
   -1.2505    3.4663    0.0268 N   0  0  0  0  0  0  0  0  0  0  0  0
   -1.2298    2.0655    0.0191 N   0  0  0  0  0  0  0  0  0  0  0  0
   -0.0168    1.3889    0.0097 C   0  0  0  0  0  0  0  0  0  0  0  0
    1.1783    2.1046    0.0021 C   0  0  0  0  0  0  0  0  0  0  0  0
    2.3771    1.4397   -0.0129 C   0  0  0  0  0  0  0  0  0  0  0  0
    2.3993    0.0411   -0.0201 C   0  0  0  0  0  0  0  0  0  0  0  0
    1.1976   -0.6747   -0.0125 C   0  0  0  0  0  0  0  0  0  0  0  0
    0.0021   -0.0041    0.0020 C   0  0  0  0  0  0  0  0  0  0  0  0
    3.6863   -0.6768   -0.0353 C   0  0  0  0  0  0  0  0  0  0  0  0
    3.7043   -1.8919   -0.0412 O   0  0  0  0  0  0  0  0  0  0  0  0
   -2.4060    5.5731    0.0437 C   0  0  0  0  0  0  0  0  0  0  0  0
   -3.6229    6.2599    0.0474 C   0  0  0  0  0  0  0  0  0  0  0  0
   -3.6268    7.6358    0.0588 C   0  0  0  0  0  0  0  0  0  0  0  0
   -2.4338    8.3510    0.0536 C   0  0  0  0  0  0  0  0  0  0  0  0
   -1.2298    7.6799    0.0474 C   0  0  0  0  0  0  0  0  0  0  0  0
   -1.2128    6.2938    0.0420 C   0  0  0  0  0  0  0  0  0  0  0  0
    0.0967    8.3944    0.0510 C   0  0  0  0  0  0  0  0  0  0  0  0
   -0.0765    9.8514   -0.3727 C   0  0  0  0  0  0  0  0  0  0  0  0
   -1.1914   10.4723    0.4773 C   0  0  0  0  0  0  0  0  0  0  0  0
   -2.5219    9.8554    0.0513 C   0  0  0  0  0  0  0  0  0  0  0  0
   -3.6174   10.2980    1.0233 C   0  0  0  0  0  0  0  0  0  0  0  0
   -2.8731   10.3371   -1.3578 C   0  0  0  0  0  0  0  0  0  0  0  0
    0.6918    8.3460    1.4597 C   0  0  0  0  0  0  0  0  0  0  0  0
    1.0486    7.6958   -0.9220 C   0  0  0  0  0  0  0  0  0  0  0  0
   -3.9852    3.1342    1.0656 H   0  0  0  0  0  0  0  0  0  0  0  0
   -4.4487    3.9067   -0.4696 H   0  0  0  0  0  0  0  0  0  0  0  0
   -3.5361    2.3785   -0.4822 H   0  0  0  0  0  0  0  0  0  0  0  0
   -2.0626    1.5682    0.0203 H   0  0  0  0  0  0  0  0  0  0  0  0
    1.1605    3.1845    0.0081 H   0  0  0  0  0  0  0  0  0  0  0  0
    3.3033    1.9951   -0.0184 H   0  0  0  0  0  0  0  0  0  0  0  0
    1.2116   -1.7546   -0.0177 H   0  0  0  0  0  0  0  0  0  0  0  0
   -0.9261   -0.5562    0.0079 H   0  0  0  0  0  0  0  0  0  0  0  0
   -4.5548    5.7140    0.0459 H   0  0  0  0  0  0  0  0  0  0  0  0
   -4.5673    8.1667    0.0670 H   0  0  0  0  0  0  0  0  0  0  0  0
   -0.2690    5.7688    0.0361 H   0  0  0  0  0  0  0  0  0  0  0  0
    0.8546   10.3942   -0.2102 H   0  0  0  0  0  0  0  0  0  0  0  0
   -0.3498    9.8972   -1.4269 H   0  0  0  0  0  0  0  0  0  0  0  0
   -1.0099   10.2620    1.5313 H   0  0  0  0  0  0  0  0  0  0  0  0
   -1.2179   11.5502    0.3173 H   0  0  0  0  0  0  0  0  0  0  0  0
   -3.6977   11.3850    1.0097 H   0  0  0  0  0  0  0  0  0  0  0  0
   -4.5689    9.8596    0.7226 H   0  0  0  0  0  0  0  0  0  0  0  0
   -3.3659    9.9649    2.0303 H   0  0  0  0  0  0  0  0  0  0  0  0
   -2.0901   10.0319   -2.0518 H   0  0  0  0  0  0  0  0  0  0  0  0
   -3.8225    9.8988   -1.6655 H   0  0  0  0  0  0  0  0  0  0  0  0
   -2.9571   11.4239   -1.3598 H   0  0  0  0  0  0  0  0  0  0  0  0
    0.8354    7.3075    1.7580 H   0  0  0  0  0  0  0  0  0  0  0  0
    1.6519    8.8621    1.4664 H   0  0  0  0  0  0  0  0  0  0  0  0
    0.0121    8.8340    2.1582 H   0  0  0  0  0  0  0  0  0  0  0  0
    0.6238    7.7192   -1.9256 H   0  0  0  0  0  0  0  0  0  0  0  0
    2.0097    8.2100   -0.9222 H   0  0  0  0  0  0  0  0  0  0  0  0
    1.1904    6.6607   -0.6115 H   0  0  0  0  0  0  0  0  0  0  0  0
    4.8433    0.0142   -0.0426 O   0  5  0  0  0  0  0  0  0  0  0  0
  1  2  1  0  0  0  0
  1 27  1  0  0  0  0
  1 28  1  0  0  0  0
  1 29  1  0  0  0  0
  2  3  2  0  0  0  0
  2 13  1  0  0  0  0
  3  4  1  0  0  0  0
  4  5  1  0  0  0  0
  4 30  1  0  0  0  0
  5 10  2  0  0  0  0
  5  6  1  0  0  0  0
  6  7  2  0  0  0  0
  6 31  1  0  0  0  0
  7  8  1  0  0  0  0
  7 32  1  0  0  0  0
  8  9  2  0  0  0  0
  8 11  1  0  0  0  0
  9 10  1  0  0  0  0
  9 33  1  0  0  0  0
 10 34  1  0  0  0  0
 11 12  2  0  0  0  0
 11 54  1  0  0  0  0
 13 18  2  0  0  0  0
 13 14  1  0  0  0  0
 14 15  2  0  0  0  0
 14 35  1  0  0  0  0
 15 16  1  0  0  0  0
 15 36  1  0  0  0  0
 16 22  1  0  0  0  0
 16 17  2  0  0  0  0
 17 18  1  0  0  0  0
 17 19  1  0  0  0  0
 18 37  1  0  0  0  0
 19 20  1  0  0  0  0
 19 25  1  0  0  0  0
 19 26  1  0  0  0  0
 20 21  1  0  0  0  0
 20 38  1  0  0  0  0
 20 39  1  0  0  0  0
 21 22  1  0  0  0  0
 21 40  1  0  0  0  0
 21 41  1  0  0  0  0
 22 23  1  0  0  0  0
 22 24  1  0  0  0  0
 23 42  1  0  0  0  0
 23 43  1  0  0  0  0
 23 44  1  0  0  0  0
 24 45  1  0  0  0  0
 24 46  1  0  0  0  0
 24 47  1  0  0  0  0
 25 48  1  0  0  0  0
 25 49  1  0  0  0  0
 25 50  1  0  0  0  0
 26 51  1  0  0  0  0
 26 52  1  0  0  0  0
 26 53  1  0  0  0  0
M  CHG  1  54  -1
M  END
$$$$
ZINC03927948
  -OEChem-08230709463D

 57 61  0     1  0  0  0  0  0999 V2000
    1.3954    3.1380    0.3424 C   0  0  0  0  0  0  0  0  0  0  0  0
    1.4127    1.6475   -0.0026 C   0  0  2  0  0  0  0  0  0  0  0  0
    2.4238    0.9139    0.8565 C   0  0  0  0  0  0  0  0  0  0  0  0
    3.7944    1.5740    0.6394 C   0  0  0  0  0  0  0  0  0  0  0  0
    4.1751    1.5521   -0.8337 C   0  0  2  0  0  0  0  0  0  0  0  0
    4.2442    0.5064   -1.1332 H   0  0  0  0  0  0  0  0  0  0  0  0
    5.5140    2.1906   -1.0758 C   0  0  0  0  0  0  0  0  0  0  0  0
    6.4689    2.0205   -0.0926 C   0  0  0  0  0  0  0  0  0  0  0  0
    7.7289    2.5749   -0.3093 C   0  0  0  0  0  0  0  0  0  0  0  0
    8.9486    2.5939    0.4795 C   0  0  0  0  0  0  0  0  0  0  0  0
    9.8637    3.2787   -0.2325 C   0  0  0  0  0  0  0  0  0  0  0  0
    9.3165    3.6991   -1.4190 N   0  0  0  0  0  0  0  0  0  0  0  0
    9.7836    4.2095   -2.0988 H   0  0  0  0  0  0  0  0  0  0  0  0
    8.0172    3.2907   -1.4987 C   0  0  0  0  0  0  0  0  0  0  0  0
    7.0389    3.4569   -2.4703 C   0  0  0  0  0  0  0  0  0  0  0  0
    5.7838    2.8986   -2.2351 C   0  0  0  0  0  0  0  0  0  0  0  0
    4.7509    3.1143   -3.3136 C   0  0  0  0  0  0  0  0  0  0  0  0
    3.5702    2.1589   -3.1548 C   0  0  0  0  0  0  0  0  0  0  0  0
    3.1009    2.2193   -1.7012 C   0  0  1  0  0  0  0  0  0  0  0  0
    2.9569    3.2580   -1.4036 H   0  0  0  0  0  0  0  0  0  0  0  0
    1.8187    1.4443   -1.4891 C   0  0  2  0  0  0  0  0  0  0  0  0
    1.9905    0.3857   -1.6840 H   0  0  0  0  0  0  0  0  0  0  0  0
    0.5879    1.9176   -2.2543 C   0  0  0  0  0  0  0  0  0  0  0  0
   -0.6118    1.6348   -1.3158 C   0  0  0  0  0  0  0  0  0  0  0  0
   -0.0127    1.0858    0.0080 C   0  0  2  0  0  0  0  0  0  0  0  0
    0.0021   -0.0041    0.0020 H   0  0  0  0  0  0  0  0  0  0  0  0
   -0.7519    1.5815    1.1553 O   0  0  0  0  0  0  0  0  0  0  0  0
   -1.7400    0.8043    1.6257 C   0  0  0  0  0  0  0  0  0  0  0  0
   -1.9794   -0.2551    1.0964 O   0  0  0  0  0  0  0  0  0  0  0  0
   -2.5508    1.2531    2.8141 C   0  0  0  0  0  0  0  0  0  0  0  0
   -3.6033    0.1925    3.1433 C   0  0  0  0  0  0  0  0  0  0  0  0
   -4.4141    0.6413    4.3317 C   0  0  0  0  0  0  0  0  0  0  0  0
   -4.1747    1.7008    4.8610 O   0  0  0  0  0  0  0  0  0  0  0  0
    0.9885    3.2743    1.3444 H   0  0  0  0  0  0  0  0  0  0  0  0
    2.4114    3.5311    0.3063 H   0  0  0  0  0  0  0  0  0  0  0  0
    0.7740    3.6704   -0.3776 H   0  0  0  0  0  0  0  0  0  0  0  0
    2.1395    0.9876    1.9062 H   0  0  0  0  0  0  0  0  0  0  0  0
    2.4713   -0.1335    0.5584 H   0  0  0  0  0  0  0  0  0  0  0  0
    4.5484    1.0352    1.2132 H   0  0  0  0  0  0  0  0  0  0  0  0
    3.7515    2.6072    0.9839 H   0  0  0  0  0  0  0  0  0  0  0  0
    6.2465    1.4766    0.8136 H   0  0  0  0  0  0  0  0  0  0  0  0
    9.0937    2.1447    1.4508 H   0  0  0  0  0  0  0  0  0  0  0  0
   10.8787    3.4692    0.0836 H   0  0  0  0  0  0  0  0  0  0  0  0
    7.2442    4.0021   -3.3797 H   0  0  0  0  0  0  0  0  0  0  0  0
    5.2129    2.9512   -4.2873 H   0  0  0  0  0  0  0  0  0  0  0  0
    4.3887    4.1409   -3.2586 H   0  0  0  0  0  0  0  0  0  0  0  0
    3.8832    1.1436   -3.3984 H   0  0  0  0  0  0  0  0  0  0  0  0
    2.7591    2.4632   -3.8163 H   0  0  0  0  0  0  0  0  0  0  0  0
    0.6605    2.9849   -2.4633 H   0  0  0  0  0  0  0  0  0  0  0  0
    0.4816    1.3566   -3.1828 H   0  0  0  0  0  0  0  0  0  0  0  0
   -1.2708    0.8916   -1.7647 H   0  0  0  0  0  0  0  0  0  0  0  0
   -1.1619    2.5560   -1.1238 H   0  0  0  0  0  0  0  0  0  0  0  0
   -1.8926    1.3904    3.6720 H   0  0  0  0  0  0  0  0  0  0  0  0
   -3.0456    2.1960    2.5812 H   0  0  0  0  0  0  0  0  0  0  0  0
   -4.2614    0.0552    2.2853 H   0  0  0  0  0  0  0  0  0  0  0  0
   -3.1085   -0.7503    3.3762 H   0  0  0  0  0  0  0  0  0  0  0  0
   -5.4022   -0.1359    4.8021 O   0  5  0  0  0  0  0  0  0  0  0  0
  1  2  1  0  0  0  0
  1 34  1  0  0  0  0
  1 35  1  0  0  0  0
  1 36  1  0  0  0  0
  2 21  1  0  0  0  0
  2 25  1  0  0  0  0
  2  3  1  0  0  0  0
  3  4  1  0  0  0  0
  3 37  1  0  0  0  0
  3 38  1  0  0  0  0
  4  5  1  0  0  0  0
  4 39  1  0  0  0  0
  4 40  1  0  0  0  0
  5  6  1  0  0  0  0
  5 19  1  0  0  0  0
  5  7  1  0  0  0  0
  7 16  2  0  0  0  0
  7  8  1  0  0  0  0
  8  9  2  0  0  0  0
  8 41  1  0  0  0  0
  9 14  1  0  0  0  0
  9 10  1  0  0  0  0
 10 11  2  0  0  0  0
 10 42  1  0  0  0  0
 11 12  1  0  0  0  0
 11 43  1  0  0  0  0
 12 13  1  0  0  0  0
 12 14  1  0  0  0  0
 14 15  2  0  0  0  0
 15 16  1  0  0  0  0
 15 44  1  0  0  0  0
 16 17  1  0  0  0  0
 17 18  1  0  0  0  0
 17 45  1  0  0  0  0
 17 46  1  0  0  0  0
 18 19  1  0  0  0  0
 18 47  1  0  0  0  0
 18 48  1  0  0  0  0
 19 20  1  0  0  0  0
 19 21  1  0  0  0  0
 21 22  1  0  0  0  0
 21 23  1  0  0  0  0
 23 24  1  0  0  0  0
 23 49  1  0  0  0  0
 23 50  1  0  0  0  0
 24 25  1  0  0  0  0
 24 51  1  0  0  0  0
 24 52  1  0  0  0  0
 25 26  1  0  0  0  0
 25 27  1  0  0  0  0
 27 28  1  0  0  0  0
 28 29  2  0  0  0  0
 28 30  1  0  0  0  0
 30 31  1  0  0  0  0
 30 53  1  0  0  0  0
 30 54  1  0  0  0  0
 31 32  1  0  0  0  0
 31 55  1  0  0  0  0
 31 56  1  0  0  0  0
 32 33  2  0  0  0  0
 32 57  1  0  0  0  0
M  CHG  1  57  -1
M  END
$$$$
ZINC03928620
  -OEChem-08230709463D

 54 58  0     0  0  0  0  0  0999 V2000
    0.0736   -9.5204   -0.0472 C   0  0  0  0  0  0  0  0  0  0  0  0
    1.3376   -8.8539   -0.0561 O   0  0  0  0  0  0  0  0  0  0  0  0
    1.3187   -7.4958   -0.0486 C   0  0  0  0  0  0  0  0  0  0  0  0
    0.1045   -6.8202   -0.0334 C   0  0  0  0  0  0  0  0  0  0  0  0
    0.0802   -5.4431   -0.0204 C   0  0  0  0  0  0  0  0  0  0  0  0
    1.2801   -4.7247   -0.0342 C   0  0  0  0  0  0  0  0  0  0  0  0
    2.4992   -5.4091   -0.0495 C   0  0  0  0  0  0  0  0  0  0  0  0
    2.5132   -6.7868   -0.0566 C   0  0  0  0  0  0  0  0  0  0  0  0
    3.8265   -7.5257   -0.0726 C   0  0  0  0  0  0  0  0  0  0  0  0
    3.9057   -8.3980   -1.3270 C   0  0  0  0  0  0  0  0  0  0  0  0
    5.2391   -9.1482   -1.3433 C   0  0  0  0  0  0  0  0  0  0  0  0
    6.3908   -8.1410   -1.3489 C   0  0  0  0  0  0  0  0  0  0  0  0
    6.3117   -7.2687   -0.0944 C   0  0  0  0  0  0  0  0  0  0  0  0
    4.9783   -6.5186   -0.0782 C   0  0  0  0  0  0  0  0  0  0  0  0
    6.4141   -8.1537    1.1495 C   0  0  0  0  0  0  0  0  0  0  0  0
    5.2623   -9.1608    1.1551 C   0  0  0  0  0  0  0  0  0  0  0  0
    5.3415  -10.0332   -0.0994 C   0  0  0  0  0  0  0  0  0  0  0  0
    3.9290   -8.4107    1.1713 C   0  0  0  0  0  0  0  0  0  0  0  0
    1.2601   -3.2929   -0.0268 C   0  0  0  0  0  0  0  0  0  0  0  0
    1.2437   -2.1190   -0.0207 C   0  0  0  0  0  0  0  0  0  0  0  0
    1.2238   -0.6871   -0.0133 C   0  0  0  0  0  0  0  0  0  0  0  0
    0.0021   -0.0041    0.0020 C   0  0  0  0  0  0  0  0  0  0  0  0
   -0.0164    1.3611    0.0095 C   0  0  0  0  0  0  0  0  0  0  0  0
    1.1852    2.0771    0.0019 C   0  0  0  0  0  0  0  0  0  0  0  0
    2.4064    1.3949   -0.0134 C   0  0  0  0  0  0  0  0  0  0  0  0
    2.4260    0.0298   -0.0209 C   0  0  0  0  0  0  0  0  0  0  0  0
    1.1647    3.5515    0.0095 C   0  0  0  0  0  0  0  0  0  0  0  0
    0.1041    4.1443    0.0224 O   0  0  0  0  0  0  0  0  0  0  0  0
    0.2314  -10.5989   -0.0546 H   0  0  0  0  0  0  0  0  0  0  0  0
   -0.4786   -9.2402    0.8498 H   0  0  0  0  0  0  0  0  0  0  0  0
   -0.4962   -9.2306   -0.9300 H   0  0  0  0  0  0  0  0  0  0  0  0
   -0.8215   -7.3759   -0.0272 H   0  0  0  0  0  0  0  0  0  0  0  0
   -0.8640   -4.9190   -0.0040 H   0  0  0  0  0  0  0  0  0  0  0  0
    3.4284   -4.8587   -0.0553 H   0  0  0  0  0  0  0  0  0  0  0  0
    3.0852   -9.1155   -1.3230 H   0  0  0  0  0  0  0  0  0  0  0  0
    3.8327   -7.7675   -2.2132 H   0  0  0  0  0  0  0  0  0  0  0  0
    5.2955   -9.7696   -2.2370 H   0  0  0  0  0  0  0  0  0  0  0  0
    6.3179   -7.5106   -2.2350 H   0  0  0  0  0  0  0  0  0  0  0  0
    7.3408   -8.6755   -1.3604 H   0  0  0  0  0  0  0  0  0  0  0  0
    7.1322   -6.5512   -0.0984 H   0  0  0  0  0  0  0  0  0  0  0  0
    4.9053   -5.8881   -0.9643 H   0  0  0  0  0  0  0  0  0  0  0  0
    4.9219   -5.8971    0.8155 H   0  0  0  0  0  0  0  0  0  0  0  0
    7.3640   -8.6882    1.1379 H   0  0  0  0  0  0  0  0  0  0  0  0
    6.3577   -7.5323    2.0432 H   0  0  0  0  0  0  0  0  0  0  0  0
    5.3353   -9.7913    2.0412 H   0  0  0  0  0  0  0  0  0  0  0  0
    4.5210  -10.7506   -0.0954 H   0  0  0  0  0  0  0  0  0  0  0  0
    6.2914  -10.5676   -0.1110 H   0  0  0  0  0  0  0  0  0  0  0  0
    3.8726   -7.7892    2.0650 H   0  0  0  0  0  0  0  0  0  0  0  0
    3.1084   -9.1282    1.1753 H   0  0  0  0  0  0  0  0  0  0  0  0
   -0.9257   -0.5568    0.0082 H   0  0  0  0  0  0  0  0  0  0  0  0
   -0.9590    1.8882    0.0168 H   0  0  0  0  0  0  0  0  0  0  0  0
    3.3339    1.9482   -0.0192 H   0  0  0  0  0  0  0  0  0  0  0  0
    3.3688   -0.4968   -0.0324 H   0  0  0  0  0  0  0  0  0  0  0  0
    2.3222    4.2416    0.0022 O   0  5  0  0  0  0  0  0  0  0  0  0
  1  2  1  0  0  0  0
  1 29  1  0  0  0  0
  1 30  1  0  0  0  0
  1 31  1  0  0  0  0
  2  3  1  0  0  0  0
  3  8  2  0  0  0  0
  3  4  1  0  0  0  0
  4  5  2  0  0  0  0
  4 32  1  0  0  0  0
  5  6  1  0  0  0  0
  5 33  1  0  0  0  0
  6  7  2  0  0  0  0
  6 19  1  0  0  0  0
  7  8  1  0  0  0  0
  7 34  1  0  0  0  0
  8  9  1  0  0  0  0
  9 14  1  0  0  0  0
  9 18  1  0  0  0  0
  9 10  1  0  0  0  0
 10 11  1  0  0  0  0
 10 35  1  0  0  0  0
 10 36  1  0  0  0  0
 11 17  1  0  0  0  0
 11 12  1  0  0  0  0
 11 37  1  0  0  0  0
 12 13  1  0  0  0  0
 12 38  1  0  0  0  0
 12 39  1  0  0  0  0
 13 14  1  0  0  0  0
 13 15  1  0  0  0  0
 13 40  1  0  0  0  0
 14 41  1  0  0  0  0
 14 42  1  0  0  0  0
 15 16  1  0  0  0  0
 15 43  1  0  0  0  0
 15 44  1  0  0  0  0
 16 17  1  0  0  0  0
 16 18  1  0  0  0  0
 16 45  1  0  0  0  0
 17 46  1  0  0  0  0
 17 47  1  0  0  0  0
 18 48  1  0  0  0  0
 18 49  1  0  0  0  0
 19 20  3  0  0  0  0
 20 21  1  0  0  0  0
 21 26  2  0  0  0  0
 21 22  1  0  0  0  0
 22 23  2  0  0  0  0
 22 50  1  0  0  0  0
 23 24  1  0  0  0  0
 23 51  1  0  0  0  0
 24 25  2  0  0  0  0
 24 27  1  0  0  0  0
 25 26  1  0  0  0  0
 25 52  1  0  0  0  0
 26 53  1  0  0  0  0
 27 28  2  0  0  0  0
 27 54  1  0  0  0  0
M  CHG  1  54  -1
M  END
$$$$
ZINC03930360
  -OEChem-08230709463D

 54 57  0     1  0  0  0  0  0999 V2000
    4.9095    4.7123    0.6062 C   0  0  0  0  0  0  0  0  0  0  0  0
    5.8895    4.7057   -0.3546 C   0  0  0  0  0  0  0  0  0  0  0  0
    5.5972    4.3429   -1.6896 C   0  0  0  0  0  0  0  0  0  0  0  0
    6.4965    4.2774   -2.8333 C   0  0  0  0  0  0  0  0  0  0  0  0
    6.0146    3.9054   -4.0272 C   0  0  0  0  0  0  0  0  0  0  0  0
    4.2866    3.6086   -3.7051 S   0  0  0  0  0  0  0  0  0  0  0  0
    4.2596    3.9929   -1.9735 C   0  0  0  0  0  0  0  0  0  0  0  0
    3.2698    4.0014   -0.9949 C   0  0  0  0  0  0  0  0  0  0  0  0
    3.6017    4.3721    0.3101 C   0  0  0  0  0  0  0  0  0  0  0  0
    1.8837    3.6286   -1.3339 C   0  0  0  0  0  0  0  0  0  0  0  0
    1.6006    3.3117   -2.4733 O   0  0  0  0  0  0  0  0  0  0  0  0
    0.9307    3.6392   -0.3809 N   0  0  0  0  0  0  0  0  0  0  0  0
   -0.4461    3.2689   -0.7176 C   0  0  1  0  0  0  0  0  0  0  0  0
   -0.7001    3.6169   -1.7189 H   0  0  0  0  0  0  0  0  0  0  0  0
   -0.6343    1.7244   -0.6149 C   0  0  1  0  0  0  0  0  0  0  0  0
   -0.2929    1.1348   -1.4657 H   0  0  0  0  0  0  0  0  0  0  0  0
   -0.0182    1.3472    0.7669 C   0  0  0  0  0  0  0  0  0  0  0  0
   -1.0003    1.9311    1.8081 C   0  0  0  0  0  0  0  0  0  0  0  0
   -2.1208    2.6056    0.9542 C   0  0  2  0  0  0  0  0  0  0  0  0
   -3.0707    2.7902    1.4561 H   0  0  0  0  0  0  0  0  0  0  0  0
   -2.1658    1.6402   -0.2824 C   0  0  0  0  0  0  0  0  0  0  0  0
   -1.4306    3.8525    0.3215 C   0  0  2  0  0  0  0  0  0  0  0  0
   -0.8919    4.4160    1.0833 H   0  0  0  0  0  0  0  0  0  0  0  0
   -2.4664    4.7436   -0.3668 C   0  0  0  0  0  0  0  0  0  0  0  0
   -1.7979    5.9997   -0.8631 C   0  0  0  0  0  0  0  0  0  0  0  0
   -1.9385    6.3666   -2.1128 C   0  0  0  0  0  0  0  0  0  0  0  0
   -2.9095    5.6394   -3.0069 C   0  0  0  0  0  0  0  0  0  0  0  0
   -3.8703    6.6465   -3.6422 C   0  0  0  0  0  0  0  0  0  0  0  0
   -4.8561    5.9082   -4.5499 C   0  0  0  0  0  0  0  0  0  0  0  0
   -5.8024    6.9002   -5.1757 C   0  0  0  0  0  0  0  0  0  0  0  0
   -5.6989    8.0769   -4.9217 O   0  0  0  0  0  0  0  0  0  0  0  0
    5.1646    4.9946    1.6170 H   0  0  0  0  0  0  0  0  0  0  0  0
    6.8987    4.9821   -0.0872 H   0  0  0  0  0  0  0  0  0  0  0  0
    7.5413    4.5265   -2.7204 H   0  0  0  0  0  0  0  0  0  0  0  0
    6.5465    3.8087   -4.9621 H   0  0  0  0  0  0  0  0  0  0  0  0
    2.8458    4.3891    1.0812 H   0  0  0  0  0  0  0  0  0  0  0  0
    1.1565    3.8920    0.5280 H   0  0  0  0  0  0  0  0  0  0  0  0
    0.0465    0.2641    0.8712 H   0  0  0  0  0  0  0  0  0  0  0  0
    0.9675    1.7986    0.8795 H   0  0  0  0  0  0  0  0  0  0  0  0
   -1.4184    1.1351    2.4243 H   0  0  0  0  0  0  0  0  0  0  0  0
   -0.4979    2.6710    2.4312 H   0  0  0  0  0  0  0  0  0  0  0  0
   -2.7817    2.0378   -1.0891 H   0  0  0  0  0  0  0  0  0  0  0  0
   -2.4685    0.6312   -0.0025 H   0  0  0  0  0  0  0  0  0  0  0  0
   -2.9043    4.2079   -1.2091 H   0  0  0  0  0  0  0  0  0  0  0  0
   -3.2500    5.0057    0.3441 H   0  0  0  0  0  0  0  0  0  0  0  0
   -1.2029    6.5975   -0.1885 H   0  0  0  0  0  0  0  0  0  0  0  0
   -1.3585    7.1901   -2.5024 H   0  0  0  0  0  0  0  0  0  0  0  0
   -2.3607    5.1168   -3.7903 H   0  0  0  0  0  0  0  0  0  0  0  0
   -3.4762    4.9186   -2.4176 H   0  0  0  0  0  0  0  0  0  0  0  0
   -4.4191    7.1691   -2.8588 H   0  0  0  0  0  0  0  0  0  0  0  0
   -3.3035    7.3673   -4.2316 H   0  0  0  0  0  0  0  0  0  0  0  0
   -4.3073    5.3856   -5.3334 H   0  0  0  0  0  0  0  0  0  0  0  0
   -5.4228    5.1874   -3.9606 H   0  0  0  0  0  0  0  0  0  0  0  0
   -6.7602    6.4765   -6.0152 O   0  5  0  0  0  0  0  0  0  0  0  0
  1  9  2  0  0  0  0
  1  2  1  0  0  0  0
  1 32  1  0  0  0  0
  2  3  2  0  0  0  0
  2 33  1  0  0  0  0
  3  7  1  0  0  0  0
  3  4  1  0  0  0  0
  4  5  2  0  0  0  0
  4 34  1  0  0  0  0
  5  6  1  0  0  0  0
  5 35  1  0  0  0  0
  6  7  1  0  0  0  0
  7  8  2  0  0  0  0
  8  9  1  0  0  0  0
  8 10  1  0  0  0  0
  9 36  1  0  0  0  0
 10 11  2  0  0  0  0
 10 12  1  0  0  0  0
 12 13  1  0  0  0  0
 12 37  1  0  0  0  0
 13 14  1  0  0  0  0
 13 22  1  0  0  0  0
 13 15  1  0  0  0  0
 15 16  1  0  0  0  0
 15 21  1  0  0  0  0
 15 17  1  0  0  0  0
 17 18  1  0  0  0  0
 17 38  1  0  0  0  0
 17 39  1  0  0  0  0
 18 19  1  0  0  0  0
 18 40  1  0  0  0  0
 18 41  1  0  0  0  0
 19 20  1  0  0  0  0
 19 21  1  0  0  0  0
 19 22  1  0  0  0  0
 21 42  1  0  0  0  0
 21 43  1  0  0  0  0
 22 23  1  0  0  0  0
 22 24  1  0  0  0  0
 24 25  1  0  0  0  0
 24 44  1  0  0  0  0
 24 45  1  0  0  0  0
 25 26  2  0  0  0  0
 25 46  1  0  0  0  0
 26 27  1  0  0  0  0
 26 47  1  0  0  0  0
 27 28  1  0  0  0  0
 27 48  1  0  0  0  0
 27 49  1  0  0  0  0
 28 29  1  0  0  0  0
 28 50  1  0  0  0  0
 28 51  1  0  0  0  0
 29 30  1  0  0  0  0
 29 52  1  0  0  0  0
 29 53  1  0  0  0  0
 30 31  2  0  0  0  0
 30 54  1  0  0  0  0
M  CHG  1  54  -1
M  END
$$$$
ZINC03931932
  -OEChem-08230709463D

 51 53  0     0  0  0  0  0  0999 V2000
    2.4260   -5.8151   -2.7516 C   0  0  0  0  0  0  0  0  0  0  0  0
    2.4179   -6.5018   -3.9476 C   0  0  0  0  0  0  0  0  0  0  0  0
    1.4820   -6.1878   -4.9236 C   0  0  0  0  0  0  0  0  0  0  0  0
    0.5482   -5.1858   -4.6972 C   0  0  0  0  0  0  0  0  0  0  0  0
    0.5478   -4.4991   -3.5011 C   0  0  0  0  0  0  0  0  0  0  0  0
    1.4863   -4.8121   -2.5191 C   0  0  0  0  0  0  0  0  0  0  0  0
    1.4890   -4.0752   -1.2320 C   0  0  0  0  0  0  0  0  0  0  0  0
    1.4696   -2.6823   -1.2231 C   0  0  0  0  0  0  0  0  0  0  0  0
    1.4717   -2.0012   -0.0227 C   0  0  0  0  0  0  0  0  0  0  0  0
    1.4983   -2.6969    1.1731 C   0  0  0  0  0  0  0  0  0  0  0  0
    1.5123   -4.0789    1.1758 C   0  0  0  0  0  0  0  0  0  0  0  0
    1.5104   -4.7754   -0.0221 C   0  0  0  0  0  0  0  0  0  0  0  0
    1.5298   -6.1338   -0.0208 O   0  0  0  0  0  0  0  0  0  0  0  0
    1.5511   -6.7811    1.2530 C   0  0  0  0  0  0  0  0  0  0  0  0
    1.5709   -8.2980    1.0539 C   0  0  0  0  0  0  0  0  0  0  0  0
    0.2635   -8.7431    0.3955 C   0  0  0  0  0  0  0  0  0  0  0  0
    0.2833  -10.2599    0.1965 C   0  0  0  0  0  0  0  0  0  0  0  0
    0.4317  -10.9505    1.5537 C   0  0  0  0  0  0  0  0  0  0  0  0
    1.7392  -10.5055    2.2121 C   0  0  0  0  0  0  0  0  0  0  0  0
    1.7194   -8.9886    2.4111 C   0  0  0  0  0  0  0  0  0  0  0  0
    1.4513   -0.4944   -0.0145 C   0  0  0  0  0  0  0  0  0  0  0  0
    0.0021   -0.0041    0.0020 C   0  0  0  0  0  0  0  0  0  0  0  0
   -0.0184    1.5028    0.0103 C   0  0  0  0  0  0  0  0  0  0  0  0
    1.0197    2.1211    0.0037 O   0  0  0  0  0  0  0  0  0  0  0  0
    1.4801   -6.8623   -6.1033 O   0  0  0  0  0  0  0  0  0  0  0  0
    3.1569   -6.0571   -1.9943 H   0  0  0  0  0  0  0  0  0  0  0  0
    3.1431   -7.2818   -4.1267 H   0  0  0  0  0  0  0  0  0  0  0  0
   -0.1789   -4.9440   -5.4583 H   0  0  0  0  0  0  0  0  0  0  0  0
   -0.1786   -3.7194   -3.3257 H   0  0  0  0  0  0  0  0  0  0  0  0
    1.4534   -2.1360   -2.1546 H   0  0  0  0  0  0  0  0  0  0  0  0
    1.5040   -2.1575    2.1088 H   0  0  0  0  0  0  0  0  0  0  0  0
    1.5292   -4.6164    2.1123 H   0  0  0  0  0  0  0  0  0  0  0  0
    2.4421   -6.4750    1.8013 H   0  0  0  0  0  0  0  0  0  0  0  0
    0.6624   -6.5004    1.8181 H   0  0  0  0  0  0  0  0  0  0  0  0
    2.4107   -8.5696    0.4143 H   0  0  0  0  0  0  0  0  0  0  0  0
   -0.5763   -8.4715    1.0352 H   0  0  0  0  0  0  0  0  0  0  0  0
    0.1577   -8.2511   -0.5714 H   0  0  0  0  0  0  0  0  0  0  0  0
    1.1230  -10.5315   -0.4432 H   0  0  0  0  0  0  0  0  0  0  0  0
   -0.6482  -10.5770   -0.2726 H   0  0  0  0  0  0  0  0  0  0  0  0
    0.4458  -12.0312    1.4119 H   0  0  0  0  0  0  0  0  0  0  0  0
   -0.4080  -10.6789    2.1933 H   0  0  0  0  0  0  0  0  0  0  0  0
    2.5789  -10.7770    1.5724 H   0  0  0  0  0  0  0  0  0  0  0  0
    1.8449  -10.9974    3.1789 H   0  0  0  0  0  0  0  0  0  0  0  0
    2.6508   -8.6715    2.8802 H   0  0  0  0  0  0  0  0  0  0  0  0
    0.8796   -8.7170    3.0508 H   0  0  0  0  0  0  0  0  0  0  0  0
    1.9516   -0.1193   -0.9073 H   0  0  0  0  0  0  0  0  0  0  0  0
    1.9686   -0.1289    0.8726 H   0  0  0  0  0  0  0  0  0  0  0  0
   -0.4983   -0.3791    0.8948 H   0  0  0  0  0  0  0  0  0  0  0  0
   -0.5153   -0.3696   -0.8850 H   0  0  0  0  0  0  0  0  0  0  0  0
    2.0358   -6.4621   -6.7861 H   0  0  0  0  0  0  0  0  0  0  0  0
   -1.1898    2.1580    0.0194 O   0  5  0  0  0  0  0  0  0  0  0  0
  1  6  2  0  0  0  0
  1  2  1  0  0  0  0
  1 26  1  0  0  0  0
  2  3  2  0  0  0  0
  2 27  1  0  0  0  0
  3  4  1  0  0  0  0
  3 25  1  0  0  0  0
  4  5  2  0  0  0  0
  4 28  1  0  0  0  0
  5  6  1  0  0  0  0
  5 29  1  0  0  0  0
  6  7  1  0  0  0  0
  7 12  2  0  0  0  0
  7  8  1  0  0  0  0
  8  9  2  0  0  0  0
  8 30  1  0  0  0  0
  9 10  1  0  0  0  0
  9 21  1  0  0  0  0
 10 11  2  0  0  0  0
 10 31  1  0  0  0  0
 11 12  1  0  0  0  0
 11 32  1  0  0  0  0
 12 13  1  0  0  0  0
 13 14  1  0  0  0  0
 14 15  1  0  0  0  0
 14 33  1  0  0  0  0
 14 34  1  0  0  0  0
 15 20  1  0  0  0  0
 15 16  1  0  0  0  0
 15 35  1  0  0  0  0
 16 17  1  0  0  0  0
 16 36  1  0  0  0  0
 16 37  1  0  0  0  0
 17 18  1  0  0  0  0
 17 38  1  0  0  0  0
 17 39  1  0  0  0  0
 18 19  1  0  0  0  0
 18 40  1  0  0  0  0
 18 41  1  0  0  0  0
 19 20  1  0  0  0  0
 19 42  1  0  0  0  0
 19 43  1  0  0  0  0
 20 44  1  0  0  0  0
 20 45  1  0  0  0  0
 21 22  1  0  0  0  0
 21 46  1  0  0  0  0
 21 47  1  0  0  0  0
 22 23  1  0  0  0  0
 22 48  1  0  0  0  0
 22 49  1  0  0  0  0
 23 24  2  0  0  0  0
 23 51  1  0  0  0  0
 25 50  1  0  0  0  0
M  CHG  1  51  -1
M  END
$$$$
ZINC03932199
  -OEChem-08230709463D

 60 63  0     0  0  0  0  0  0999 V2000
   -6.2657    3.8017   -6.8349 C   0  0  0  0  0  0  0  0  0  0  0  0
   -6.0994    3.3996   -5.3681 C   0  0  0  0  0  0  0  0  0  0  0  0
   -5.7183    4.6299   -4.5422 C   0  0  0  0  0  0  0  0  0  0  0  0
   -5.5520    4.2278   -3.0753 C   0  0  0  0  0  0  0  0  0  0  0  0
   -5.1767    5.4395   -2.2618 C   0  0  0  0  0  0  0  0  0  0  0  0
   -5.0272    6.6286   -2.7678 N   0  0  0  0  0  0  0  0  0  0  0  0
   -4.6910    7.5446   -1.8373 C   0  0  0  0  0  0  0  0  0  0  0  0
   -4.4623    8.8677   -2.0272 C   0  0  0  0  0  0  0  0  0  0  0  0
   -4.1127    9.7006   -0.9160 C   0  0  0  0  0  0  0  0  0  0  0  0
   -3.8354   10.3613   -0.0345 N   0  0  0  0  0  0  0  0  0  0  0  0
   -4.6306    6.7818   -0.5414 C   0  0  0  0  0  0  0  0  0  0  0  0
   -4.9578    5.4073   -0.9170 N   0  0  0  0  0  0  0  0  0  0  0  0
   -5.0395    4.2419   -0.0330 C   0  0  0  0  0  0  0  0  0  0  0  0
   -6.4728    4.0221    0.3773 C   0  0  0  0  0  0  0  0  0  0  0  0
   -7.3094    3.2629   -0.4212 C   0  0  0  0  0  0  0  0  0  0  0  0
   -8.6228    3.0582   -0.0507 C   0  0  0  0  0  0  0  0  0  0  0  0
   -9.1062    3.6184    1.1312 C   0  0  0  0  0  0  0  0  0  0  0  0
   -8.2597    4.3871    1.9293 C   0  0  0  0  0  0  0  0  0  0  0  0
   -6.9467    4.5801    1.5512 C   0  0  0  0  0  0  0  0  0  0  0  0
  -10.5157    3.4027    1.5345 C   0  0  0  0  0  0  0  0  0  0  0  0
  -11.5522    3.7677    0.6800 C   0  0  0  0  0  0  0  0  0  0  0  0
  -12.8640    3.5707    1.0619 C   0  0  0  0  0  0  0  0  0  0  0  0
  -13.1598    3.0096    2.2935 C   0  0  0  0  0  0  0  0  0  0  0  0
  -12.1471    2.6414    3.1542 C   0  0  0  0  0  0  0  0  0  0  0  0
  -10.8147    2.8333    2.7856 C   0  0  0  0  0  0  0  0  0  0  0  0
   -9.7272    2.4419    3.7020 C   0  0  0  0  0  0  0  0  0  0  0  0
   -8.6266    2.1771    3.2606 O   0  0  0  0  0  0  0  0  0  0  0  0
   -3.2383    6.8778    0.1021 C   0  0  0  0  0  0  0  0  0  0  0  0
   -3.5292    6.5548    1.5910 C   0  0  0  0  0  0  0  0  0  0  0  0
   -4.8998    7.2106    1.8639 C   0  0  0  0  0  0  0  0  0  0  0  0
   -5.6044    7.3404    0.4989 C   0  0  0  0  0  0  0  0  0  0  0  0
   -7.0508    4.5531   -6.9189 H   0  0  0  0  0  0  0  0  0  0  0  0
   -5.3276    4.2131   -7.2075 H   0  0  0  0  0  0  0  0  0  0  0  0
   -6.5372    2.9252   -7.4234 H   0  0  0  0  0  0  0  0  0  0  0  0
   -5.3143    2.6482   -5.2841 H   0  0  0  0  0  0  0  0  0  0  0  0
   -7.0375    2.9882   -4.9955 H   0  0  0  0  0  0  0  0  0  0  0  0
   -6.5034    5.3813   -4.6262 H   0  0  0  0  0  0  0  0  0  0  0  0
   -4.7802    5.0413   -4.9147 H   0  0  0  0  0  0  0  0  0  0  0  0
   -4.8317    3.5384   -2.9983 H   0  0  0  0  0  0  0  0  0  0  0  0
   -6.4901    3.8164   -2.7027 H   0  0  0  0  0  0  0  0  0  0  0  0
   -4.5439    9.2933   -3.0164 H   0  0  0  0  0  0  0  0  0  0  0  0
   -4.4302    4.4153    0.8540 H   0  0  0  0  0  0  0  0  0  0  0  0
   -4.6730    3.3604   -0.5590 H   0  0  0  0  0  0  0  0  0  0  0  0
   -6.9337    2.8293   -1.3361 H   0  0  0  0  0  0  0  0  0  0  0  0
   -9.2750    2.4656   -0.6750 H   0  0  0  0  0  0  0  0  0  0  0  0
   -8.6297    4.8268    2.8437 H   0  0  0  0  0  0  0  0  0  0  0  0
   -6.2888    5.1716    2.1707 H   0  0  0  0  0  0  0  0  0  0  0  0
  -11.3300    4.2054   -0.2820 H   0  0  0  0  0  0  0  0  0  0  0  0
  -13.6651    3.8557    0.3959 H   0  0  0  0  0  0  0  0  0  0  0  0
  -14.1898    2.8600    2.5815 H   0  0  0  0  0  0  0  0  0  0  0  0
  -12.3850    2.2052    4.1131 H   0  0  0  0  0  0  0  0  0  0  0  0
   -2.5616    6.1397   -0.3285 H   0  0  0  0  0  0  0  0  0  0  0  0
   -2.8323    7.8839   -0.0031 H   0  0  0  0  0  0  0  0  0  0  0  0
   -2.7635    6.9915    2.2323 H   0  0  0  0  0  0  0  0  0  0  0  0
   -3.5849    5.4773    1.7453 H   0  0  0  0  0  0  0  0  0  0  0  0
   -4.7604    8.1964    2.3075 H   0  0  0  0  0  0  0  0  0  0  0  0
   -5.4896    6.5813    2.5304 H   0  0  0  0  0  0  0  0  0  0  0  0
   -5.8192    8.3877    0.2865 H   0  0  0  0  0  0  0  0  0  0  0  0
   -6.5277    6.7612    0.4965 H   0  0  0  0  0  0  0  0  0  0  0  0
   -9.9544    2.3781    5.0286 O   0  5  0  0  0  0  0  0  0  0  0  0
  1  2  1  0  0  0  0
  1 32  1  0  0  0  0
  1 33  1  0  0  0  0
  1 34  1  0  0  0  0
  2  3  1  0  0  0  0
  2 35  1  0  0  0  0
  2 36  1  0  0  0  0
  3  4  1  0  0  0  0
  3 37  1  0  0  0  0
  3 38  1  0  0  0  0
  4  5  1  0  0  0  0
  4 39  1  0  0  0  0
  4 40  1  0  0  0  0
  5 12  1  0  0  0  0
  5  6  2  0  0  0  0
  6  7  1  0  0  0  0
  7  8  2  0  0  0  0
  7 11  1  0  0  0  0
  8  9  1  0  0  0  0
  8 41  1  0  0  0  0
  9 10  3  0  0  0  0
 11 31  1  0  0  0  0
 11 12  1  0  0  0  0
 11 28  1  0  0  0  0
 12 13  1  0  0  0  0
 13 14  1  0  0  0  0
 13 42  1  0  0  0  0
 13 43  1  0  0  0  0
 14 19  2  0  0  0  0
 14 15  1  0  0  0  0
 15 16  2  0  0  0  0
 15 44  1  0  0  0  0
 16 17  1  0  0  0  0
 16 45  1  0  0  0  0
 17 18  2  0  0  0  0
 17 20  1  0  0  0  0
 18 19  1  0  0  0  0
 18 46  1  0  0  0  0
 19 47  1  0  0  0  0
 20 25  2  0  0  0  0
 20 21  1  0  0  0  0
 21 22  2  0  0  0  0
 21 48  1  0  0  0  0
 22 23  1  0  0  0  0
 22 49  1  0  0  0  0
 23 24  2  0  0  0  0
 23 50  1  0  0  0  0
 24 25  1  0  0  0  0
 24 51  1  0  0  0  0
 25 26  1  0  0  0  0
 26 27  2  0  0  0  0
 26 60  1  0  0  0  0
 28 29  1  0  0  0  0
 28 52  1  0  0  0  0
 28 53  1  0  0  0  0
 29 30  1  0  0  0  0
 29 54  1  0  0  0  0
 29 55  1  0  0  0  0
 30 31  1  0  0  0  0
 30 56  1  0  0  0  0
 30 57  1  0  0  0  0
 31 58  1  0  0  0  0
 31 59  1  0  0  0  0
M  CHG  1  60  -1
M  END
$$$$
ZINC03932199
  -OEChem-08230709463D

 60 63  0     1  0  0  0  0  0999 V2000
   -6.1084    0.5532   -2.0688 C   0  0  0  0  0  0  0  0  0  0  0  0
   -6.0207    1.7753   -2.9851 C   0  0  0  0  0  0  0  0  0  0  0  0
   -5.6397    3.0056   -2.1590 C   0  0  0  0  0  0  0  0  0  0  0  0
   -5.5520    4.2278   -3.0753 C   0  0  0  0  0  0  0  0  0  0  0  0
   -5.1767    5.4395   -2.2618 C   0  0  0  0  0  0  0  0  0  0  0  0
   -5.0269    6.6285   -2.7679 N   0  0  0  0  0  0  0  0  0  0  0  0
   -4.6908    7.5446   -1.8373 C   0  0  0  0  0  0  0  0  0  0  0  0
   -4.4573    8.8667   -2.0280 C   0  0  0  0  0  0  0  0  0  0  0  0
   -4.1086    9.6998   -0.9167 C   0  0  0  0  0  0  0  0  0  0  0  0
   -3.8321   10.3606   -0.0351 N   0  0  0  0  0  0  0  0  0  0  0  0
   -4.6308    6.7818   -0.5414 C   0  0  0  0  0  0  0  0  0  0  0  0
   -4.9578    5.4073   -0.9170 N   0  0  3  0  0  0  0  0  0  0  0  0
   -5.0395    4.2419   -0.0330 C   0  0  0  0  0  0  0  0  0  0  0  0
   -6.4728    4.0221    0.3773 C   0  0  0  0  0  0  0  0  0  0  0  0
   -7.3094    3.2629   -0.4212 C   0  0  0  0  0  0  0  0  0  0  0  0
   -8.6228    3.0582   -0.0507 C   0  0  0  0  0  0  0  0  0  0  0  0
   -9.1062    3.6184    1.1312 C   0  0  0  0  0  0  0  0  0  0  0  0
   -8.2597    4.3871    1.9293 C   0  0  0  0  0  0  0  0  0  0  0  0
   -6.9467    4.5801    1.5512 C   0  0  0  0  0  0  0  0  0  0  0  0
  -10.5157    3.4027    1.5345 C   0  0  0  0  0  0  0  0  0  0  0  0
  -11.5522    3.7677    0.6800 C   0  0  0  0  0  0  0  0  0  0  0  0
  -12.8640    3.5707    1.0619 C   0  0  0  0  0  0  0  0  0  0  0  0
  -13.1598    3.0096    2.2935 C   0  0  0  0  0  0  0  0  0  0  0  0
  -12.1471    2.6414    3.1542 C   0  0  0  0  0  0  0  0  0  0  0  0
  -10.8147    2.8333    2.7856 C   0  0  0  0  0  0  0  0  0  0  0  0
   -9.7272    2.4419    3.7020 C   0  0  0  0  0  0  0  0  0  0  0  0
   -8.6266    2.1771    3.2606 O   0  0  0  0  0  0  0  0  0  0  0  0
   -3.2386    6.8777    0.1025 C   0  0  0  0  0  0  0  0  0  0  0  0
   -3.5299    6.5548    1.5913 C   0  0  0  0  0  0  0  0  0  0  0  0
   -4.9005    7.2109    1.8638 C   0  0  0  0  0  0  0  0  0  0  0  0
   -5.6047    7.3407    0.4987 C   0  0  0  0  0  0  0  0  0  0  0  0
   -5.1424    0.3860   -1.5925 H   0  0  0  0  0  0  0  0  0  0  0  0
   -6.8656    0.7260   -1.3040 H   0  0  0  0  0  0  0  0  0  0  0  0
   -6.3799   -0.3234   -2.6573 H   0  0  0  0  0  0  0  0  0  0  0  0
   -6.9868    1.9425   -3.4613 H   0  0  0  0  0  0  0  0  0  0  0  0
   -5.2636    1.6025   -3.7499 H   0  0  0  0  0  0  0  0  0  0  0  0
   -4.6737    2.8384   -1.6828 H   0  0  0  0  0  0  0  0  0  0  0  0
   -6.3968    3.1785   -1.3942 H   0  0  0  0  0  0  0  0  0  0  0  0
   -5.0363    9.3806   -2.6610 H   0  0  0  0  0  0  0  0  0  0  0  0
   -5.6705    4.5143   -4.1203 H   0  0  0  0  0  0  0  0  0  0  0  0
   -4.5345    9.2914   -3.0180 H   0  0  0  0  0  0  0  0  0  0  0  0
   -4.4302    4.4153    0.8540 H   0  0  0  0  0  0  0  0  0  0  0  0
   -4.6730    3.3604   -0.5590 H   0  0  0  0  0  0  0  0  0  0  0  0
   -6.9337    2.8293   -1.3361 H   0  0  0  0  0  0  0  0  0  0  0  0
   -9.2750    2.4656   -0.6750 H   0  0  0  0  0  0  0  0  0  0  0  0
   -8.6297    4.8268    2.8437 H   0  0  0  0  0  0  0  0  0  0  0  0
   -6.2888    5.1716    2.1707 H   0  0  0  0  0  0  0  0  0  0  0  0
  -11.3300    4.2054   -0.2820 H   0  0  0  0  0  0  0  0  0  0  0  0
  -13.6651    3.8557    0.3959 H   0  0  0  0  0  0  0  0  0  0  0  0
  -14.1898    2.8600    2.5815 H   0  0  0  0  0  0  0  0  0  0  0  0
  -12.3850    2.2052    4.1131 H   0  0  0  0  0  0  0  0  0  0  0  0
   -2.5619    6.1394   -0.3279 H   0  0  0  0  0  0  0  0  0  0  0  0
   -2.8324    7.8837   -0.0027 H   0  0  0  0  0  0  0  0  0  0  0  0
   -2.7643    6.9914    2.2328 H   0  0  0  0  0  0  0  0  0  0  0  0
   -3.5858    5.4773    1.7457 H   0  0  0  0  0  0  0  0  0  0  0  0
   -4.7610    8.1967    2.3074 H   0  0  0  0  0  0  0  0  0  0  0  0
   -5.4905    6.5817    2.5302 H   0  0  0  0  0  0  0  0  0  0  0  0
   -5.8193    8.3880    0.2861 H   0  0  0  0  0  0  0  0  0  0  0  0
   -6.5281    6.7616    0.4961 H   0  0  0  0  0  0  0  0  0  0  0  0
   -9.9544    2.3781    5.0286 O   0  5  0  0  0  0  0  0  0  0  0  0
  1  2  1  0  0  0  0
  1 32  1  0  0  0  0
  1 33  1  0  0  0  0
  1 34  1  0  0  0  0
  2  3  1  0  0  0  0
  2 35  1  0  0  0  0
  2 36  1  0  0  0  0
  3  4  1  0  0  0  0
  3 37  1  0  0  0  0
  3 38  1  0  0  0  0
  4 40  1  0  0  0  0
  4  5  2  0  0  0  0
  5 12  1  0  0  0  0
  5  6  1  0  0  0  0
  6  7  2  0  0  0  0
  7 11  1  0  0  0  0
  7  8  1  0  0  0  0
  8  9  1  0  0  0  0
  8 41  1  0  0  0  0
  8 39  1  0  0  0  0
  9 10  3  0  0  0  0
 11 31  1  0  0  0  0
 11 12  1  0  0  0  0
 11 28  1  0  0  0  0
 12 13  1  0  0  0  0
 13 14  1  0  0  0  0
 13 42  1  0  0  0  0
 13 43  1  0  0  0  0
 14 19  2  0  0  0  0
 14 15  1  0  0  0  0
 15 16  2  0  0  0  0
 15 44  1  0  0  0  0
 16 17  1  0  0  0  0
 16 45  1  0  0  0  0
 17 18  2  0  0  0  0
 17 20  1  0  0  0  0
 18 19  1  0  0  0  0
 18 46  1  0  0  0  0
 19 47  1  0  0  0  0
 20 25  2  0  0  0  0
 20 21  1  0  0  0  0
 21 22  2  0  0  0  0
 21 48  1  0  0  0  0
 22 23  1  0  0  0  0
 22 49  1  0  0  0  0
 23 24  2  0  0  0  0
 23 50  1  0  0  0  0
 24 25  1  0  0  0  0
 24 51  1  0  0  0  0
 25 26  1  0  0  0  0
 26 27  2  0  0  0  0
 26 60  1  0  0  0  0
 28 29  1  0  0  0  0
 28 52  1  0  0  0  0
 28 53  1  0  0  0  0
 29 30  1  0  0  0  0
 29 54  1  0  0  0  0
 29 55  1  0  0  0  0
 30 31  1  0  0  0  0
 30 56  1  0  0  0  0
 30 57  1  0  0  0  0
 31 58  1  0  0  0  0
 31 59  1  0  0  0  0
M  CHG  1  60  -1
M  END
$$$$
ZINC03932199
  -OEChem-08230709463D

 60 63  0     1  0  0  0  0  0999 V2000
   -6.2657    3.8017   -6.8349 C   0  0  0  0  0  0  0  0  0  0  0  0
   -6.0994    3.3996   -5.3681 C   0  0  0  0  0  0  0  0  0  0  0  0
   -5.7183    4.6299   -4.5422 C   0  0  0  0  0  0  0  0  0  0  0  0
   -5.5520    4.2278   -3.0753 C   0  0  0  0  0  0  0  0  0  0  0  0
   -5.1767    5.4395   -2.2618 C   0  0  0  0  0  0  0  0  0  0  0  0
   -5.0269    6.6285   -2.7679 N   0  0  0  0  0  0  0  0  0  0  0  0
   -4.6908    7.5446   -1.8373 C   0  0  0  0  0  0  0  0  0  0  0  0
   -4.4573    8.8667   -2.0280 C   0  0  0  0  0  0  0  0  0  0  0  0
   -4.1086    9.6998   -0.9167 C   0  0  0  0  0  0  0  0  0  0  0  0
   -3.8321   10.3606   -0.0351 N   0  0  0  0  0  0  0  0  0  0  0  0
   -4.6308    6.7818   -0.5414 C   0  0  0  0  0  0  0  0  0  0  0  0
   -4.9578    5.4073   -0.9170 N   0  0  3  0  0  0  0  0  0  0  0  0
   -5.0395    4.2419   -0.0330 C   0  0  0  0  0  0  0  0  0  0  0  0
   -6.4728    4.0221    0.3773 C   0  0  0  0  0  0  0  0  0  0  0  0
   -7.3094    3.2629   -0.4212 C   0  0  0  0  0  0  0  0  0  0  0  0
   -8.6228    3.0582   -0.0507 C   0  0  0  0  0  0  0  0  0  0  0  0
   -9.1062    3.6184    1.1312 C   0  0  0  0  0  0  0  0  0  0  0  0
   -8.2597    4.3871    1.9293 C   0  0  0  0  0  0  0  0  0  0  0  0
   -6.9467    4.5801    1.5512 C   0  0  0  0  0  0  0  0  0  0  0  0
  -10.5157    3.4027    1.5345 C   0  0  0  0  0  0  0  0  0  0  0  0
  -11.5522    3.7677    0.6800 C   0  0  0  0  0  0  0  0  0  0  0  0
  -12.8640    3.5707    1.0619 C   0  0  0  0  0  0  0  0  0  0  0  0
  -13.1598    3.0096    2.2935 C   0  0  0  0  0  0  0  0  0  0  0  0
  -12.1471    2.6414    3.1542 C   0  0  0  0  0  0  0  0  0  0  0  0
  -10.8147    2.8333    2.7856 C   0  0  0  0  0  0  0  0  0  0  0  0
   -9.7272    2.4419    3.7020 C   0  0  0  0  0  0  0  0  0  0  0  0
   -8.6266    2.1771    3.2606 O   0  0  0  0  0  0  0  0  0  0  0  0
   -3.2386    6.8777    0.1025 C   0  0  0  0  0  0  0  0  0  0  0  0
   -3.5299    6.5548    1.5913 C   0  0  0  0  0  0  0  0  0  0  0  0
   -4.9005    7.2109    1.8638 C   0  0  0  0  0  0  0  0  0  0  0  0
   -5.6047    7.3407    0.4987 C   0  0  0  0  0  0  0  0  0  0  0  0
   -7.0508    4.5531   -6.9189 H   0  0  0  0  0  0  0  0  0  0  0  0
   -5.3276    4.2131   -7.2075 H   0  0  0  0  0  0  0  0  0  0  0  0
   -6.5372    2.9252   -7.4234 H   0  0  0  0  0  0  0  0  0  0  0  0
   -5.3143    2.6482   -5.2841 H   0  0  0  0  0  0  0  0  0  0  0  0
   -7.0375    2.9882   -4.9955 H   0  0  0  0  0  0  0  0  0  0  0  0
   -6.5034    5.3813   -4.6262 H   0  0  0  0  0  0  0  0  0  0  0  0
   -4.7802    5.0413   -4.9147 H   0  0  0  0  0  0  0  0  0  0  0  0
   -5.0363    9.3806   -2.6610 H   0  0  0  0  0  0  0  0  0  0  0  0
   -5.6145    3.3571   -2.4225 H   0  0  0  0  0  0  0  0  0  0  0  0
   -4.5345    9.2914   -3.0180 H   0  0  0  0  0  0  0  0  0  0  0  0
   -4.4302    4.4153    0.8540 H   0  0  0  0  0  0  0  0  0  0  0  0
   -4.6730    3.3604   -0.5590 H   0  0  0  0  0  0  0  0  0  0  0  0
   -6.9337    2.8293   -1.3361 H   0  0  0  0  0  0  0  0  0  0  0  0
   -9.2750    2.4656   -0.6750 H   0  0  0  0  0  0  0  0  0  0  0  0
   -8.6297    4.8268    2.8437 H   0  0  0  0  0  0  0  0  0  0  0  0
   -6.2888    5.1716    2.1707 H   0  0  0  0  0  0  0  0  0  0  0  0
  -11.3300    4.2054   -0.2820 H   0  0  0  0  0  0  0  0  0  0  0  0
  -13.6651    3.8557    0.3959 H   0  0  0  0  0  0  0  0  0  0  0  0
  -14.1898    2.8600    2.5815 H   0  0  0  0  0  0  0  0  0  0  0  0
  -12.3850    2.2052    4.1131 H   0  0  0  0  0  0  0  0  0  0  0  0
   -2.5619    6.1394   -0.3279 H   0  0  0  0  0  0  0  0  0  0  0  0
   -2.8324    7.8837   -0.0027 H   0  0  0  0  0  0  0  0  0  0  0  0
   -2.7643    6.9914    2.2328 H   0  0  0  0  0  0  0  0  0  0  0  0
   -3.5858    5.4773    1.7457 H   0  0  0  0  0  0  0  0  0  0  0  0
   -4.7610    8.1967    2.3074 H   0  0  0  0  0  0  0  0  0  0  0  0
   -5.4905    6.5817    2.5302 H   0  0  0  0  0  0  0  0  0  0  0  0
   -5.8193    8.3880    0.2861 H   0  0  0  0  0  0  0  0  0  0  0  0
   -6.5281    6.7616    0.4961 H   0  0  0  0  0  0  0  0  0  0  0  0
   -9.9544    2.3781    5.0286 O   0  5  0  0  0  0  0  0  0  0  0  0
  1  2  1  0  0  0  0
  1 32  1  0  0  0  0
  1 33  1  0  0  0  0
  1 34  1  0  0  0  0
  2  3  1  0  0  0  0
  2 35  1  0  0  0  0
  2 36  1  0  0  0  0
  3  4  1  0  0  0  0
  3 37  1  0  0  0  0
  3 38  1  0  0  0  0
  4 40  1  0  0  0  0
  4  5  2  0  0  0  0
  5 12  1  0  0  0  0
  5  6  1  0  0  0  0
  6  7  2  0  0  0  0
  7 11  1  0  0  0  0
  7  8  1  0  0  0  0
  8  9  1  0  0  0  0
  8 41  1  0  0  0  0
  8 39  1  0  0  0  0
  9 10  3  0  0  0  0
 11 31  1  0  0  0  0
 11 12  1  0  0  0  0
 11 28  1  0  0  0  0
 12 13  1  0  0  0  0
 13 14  1  0  0  0  0
 13 42  1  0  0  0  0
 13 43  1  0  0  0  0
 14 19  2  0  0  0  0
 14 15  1  0  0  0  0
 15 16  2  0  0  0  0
 15 44  1  0  0  0  0
 16 17  1  0  0  0  0
 16 45  1  0  0  0  0
 17 18  2  0  0  0  0
 17 20  1  0  0  0  0
 18 19  1  0  0  0  0
 18 46  1  0  0  0  0
 19 47  1  0  0  0  0
 20 25  2  0  0  0  0
 20 21  1  0  0  0  0
 21 22  2  0  0  0  0
 21 48  1  0  0  0  0
 22 23  1  0  0  0  0
 22 49  1  0  0  0  0
 23 24  2  0  0  0  0
 23 50  1  0  0  0  0
 24 25  1  0  0  0  0
 24 51  1  0  0  0  0
 25 26  1  0  0  0  0
 26 27  2  0  0  0  0
 26 60  1  0  0  0  0
 28 29  1  0  0  0  0
 28 52  1  0  0  0  0
 28 53  1  0  0  0  0
 29 30  1  0  0  0  0
 29 54  1  0  0  0  0
 29 55  1  0  0  0  0
 30 31  1  0  0  0  0
 30 56  1  0  0  0  0
 30 57  1  0  0  0  0
 31 58  1  0  0  0  0
 31 59  1  0  0  0  0
M  CHG  1  60  -1
M  END
$$$$
ZINC03934404
  -OEChem-08230709463D

 79 83  0     1  0  0  0  0  0999 V2000
    6.0611   -3.2347    2.8932 C   0  0  0  0  0  0  0  0  0  0  0  0
    5.6223   -1.7100    2.5236 C   0  0  2  0  0  0  0  0  0  0  0  0
    6.5463   -1.2160    2.0232 H   0  0  0  0  0  0  0  0  0  0  0  0
    5.2991   -1.0223    3.8269 C   0  0  0  0  0  0  0  0  0  0  0  0
    4.9750    0.4707    3.4508 C   0  0  0  0  0  0  0  0  0  0  0  0
    3.8028    0.4979    2.5001 C   0  0  2  0  0  0  0  0  0  0  0  0
    2.5250   -0.0844    3.0511 C   0  0  0  0  0  0  0  0  0  0  0  0
    1.2965    0.1651    2.2211 C   0  0  0  0  0  0  0  0  0  0  0  0
    1.5121   -0.4656    0.8156 C   0  0  2  0  0  0  0  0  0  0  0  0
    2.9099   -0.2705    0.3506 C   0  0  0  0  0  0  0  0  0  0  0  0
    3.1247   -0.0730   -0.9766 C   0  0  0  0  0  0  0  0  0  0  0  0
    2.1077    0.0618   -2.0694 C   0  0  0  0  0  0  0  0  0  0  0  0
    0.8429   -0.5623   -1.5482 C   0  0  1  0  0  0  0  0  0  0  0  0
    1.0020   -1.5844   -1.4530 H   0  0  0  0  0  0  0  0  0  0  0  0
    0.4416   -0.0392   -0.1764 C   0  0  1  0  0  0  0  0  0  0  0  0
   -0.8996   -0.4169    0.2625 C   0  0  0  0  0  0  0  0  0  0  0  0
   -1.9686   -0.1330   -0.8342 C   0  0  0  0  0  0  0  0  0  0  0  0
   -1.5536   -0.8551   -2.0517 C   0  0  2  0  0  0  0  0  0  0  0  0
   -1.4142   -1.9644   -1.6977 H   0  0  0  0  0  0  0  0  0  0  0  0
   -0.2922   -0.4061   -2.5855 C   0  0  2  0  0  0  0  0  0  0  0  0
    0.1082   -1.2246   -3.8922 C   0  0  0  0  0  0  0  0  0  0  0  0
   -0.8990   -1.0814   -4.9339 C   0  0  0  0  0  0  0  0  0  0  0  0
   -2.3164   -1.4194   -4.3921 C   0  0  0  0  0  0  0  0  0  0  0  0
   -3.0777   -2.1557   -5.0802 O   0  0  0  0  0  0  0  0  0  0  0  0
   -2.7888   -0.9642   -3.0681 C   0  0  2  0  0  0  0  0  0  0  0  0
   -3.5266    0.3831   -3.1982 C   0  0  0  0  0  0  0  0  0  0  0  0
   -3.7633   -1.9825   -2.5211 C   0  0  0  0  0  0  0  0  0  0  0  0
   -4.8723   -2.1078   -3.4136 O   0  0  0  0  0  0  0  0  0  0  0  0
   -0.3878    1.0445   -3.1889 C   0  0  0  0  0  0  0  0  0  0  0  0
    0.5277    1.5516   -0.1911 C   0  0  0  0  0  0  0  0  0  0  0  0
    4.1167   -0.2926    1.2334 C   0  0  2  0  0  0  0  0  0  0  0  0
    4.9462    0.1629    0.6651 H   0  0  0  0  0  0  0  0  0  0  0  0
    4.4773   -1.7140    1.5039 C   0  0  1  0  0  0  0  0  0  0  0  0
    3.6155   -2.2985    2.0546 H   0  0  0  0  0  0  0  0  0  0  0  0
    4.8853   -2.5157    0.2372 C   0  0  0  0  0  0  0  0  0  0  0  0
    1.3031   -2.0191    0.9829 C   0  0  0  0  0  0  0  0  0  0  0  0
    3.5495    1.9292    2.0772 C   0  0  0  0  0  0  0  0  0  0  0  0
    3.7196    2.2584    0.9272 O   0  0  0  0  0  0  0  0  0  0  0  0
    6.3928   -3.7465    1.9899 H   0  0  0  0  0  0  0  0  0  0  0  0
    6.8748   -3.2130    3.6181 H   0  0  0  0  0  0  0  0  0  0  0  0
    5.2092   -3.7648    3.3191 H   0  0  0  0  0  0  0  0  0  0  0  0
    4.3712   -1.4785    4.2365 H   0  0  0  0  0  0  0  0  0  0  0  0
    6.1104   -1.0292    4.4633 H   0  0  0  0  0  0  0  0  0  0  0  0
    5.8433    0.8725    3.0058 H   0  0  0  0  0  0  0  0  0  0  0  0
    4.7064    0.9266    4.4142 H   0  0  0  0  0  0  0  0  0  0  0  0
    2.3266    0.4345    3.9947 H   0  0  0  0  0  0  0  0  0  0  0  0
    2.6443   -1.1477    3.2912 H   0  0  0  0  0  0  0  0  0  0  0  0
    1.1002    1.2160    2.1384 H   0  0  0  0  0  0  0  0  0  0  0  0
    0.4402   -0.3695    2.6370 H   0  0  0  0  0  0  0  0  0  0  0  0
    4.2079    0.1171   -1.2550 H   0  0  0  0  0  0  0  0  0  0  0  0
    2.0157    1.1043   -2.3792 H   0  0  0  0  0  0  0  0  0  0  0  0
    2.4492   -0.5096   -2.8900 H   0  0  0  0  0  0  0  0  0  0  0  0
   -0.9915   -1.4935    0.4301 H   0  0  0  0  0  0  0  0  0  0  0  0
   -1.1714    0.1429    1.1838 H   0  0  0  0  0  0  0  0  0  0  0  0
   -1.9651    0.9342   -1.0239 H   0  0  0  0  0  0  0  0  0  0  0  0
   -2.9033   -0.4105   -0.4262 H   0  0  0  0  0  0  0  0  0  0  0  0
    1.0516   -0.9792   -4.1830 H   0  0  0  0  0  0  0  0  0  0  0  0
    0.1365   -2.3029   -3.5330 H   0  0  0  0  0  0  0  0  0  0  0  0
   -0.8790   -0.1474   -5.2907 H   0  0  0  0  0  0  0  0  0  0  0  0
   -0.6781   -1.8031   -5.6805 H   0  0  0  0  0  0  0  0  0  0  0  0
   -4.3268    0.2897   -3.9324 H   0  0  0  0  0  0  0  0  0  0  0  0
   -3.9499    0.6603   -2.2328 H   0  0  0  0  0  0  0  0  0  0  0  0
   -2.8249    1.1519   -3.5215 H   0  0  0  0  0  0  0  0  0  0  0  0
   -3.2646   -2.9468   -2.4235 H   0  0  0  0  0  0  0  0  0  0  0  0
   -4.1187   -1.6567   -1.5435 H   0  0  0  0  0  0  0  0  0  0  0  0
   -5.5391   -2.7460   -3.1252 H   0  0  0  0  0  0  0  0  0  0  0  0
    0.5881    1.3442   -3.5710 H   0  0  0  0  0  0  0  0  0  0  0  0
   -1.1143    1.0530   -4.0014 H   0  0  0  0  0  0  0  0  0  0  0  0
   -0.7033    1.7411   -2.4121 H   0  0  0  0  0  0  0  0  0  0  0  0
    1.5051    1.8592   -0.5630 H   0  0  0  0  0  0  0  0  0  0  0  0
   -0.2507    1.9516   -0.8408 H   0  0  0  0  0  0  0  0  0  0  0  0
    0.3877    1.9324    0.8206 H   0  0  0  0  0  0  0  0  0  0  0  0
    5.7535   -2.0466   -0.2258 H   0  0  0  0  0  0  0  0  0  0  0  0
    5.1325   -3.5393    0.5190 H   0  0  0  0  0  0  0  0  0  0  0  0
    4.0562   -2.5238   -0.4704 H   0  0  0  0  0  0  0  0  0  0  0  0
    1.5192   -2.5186    0.0385 H   0  0  0  0  0  0  0  0  0  0  0  0
    1.9748   -2.3950    1.7547 H   0  0  0  0  0  0  0  0  0  0  0  0
    0.2709   -2.2179    1.2712 H   0  0  0  0  0  0  0  0  0  0  0  0
    3.1361    2.8325    2.9798 O   0  5  0  0  0  0  0  0  0  0  0  0
  1  2  1  0  0  0  0
  1 39  1  0  0  0  0
  1 40  1  0  0  0  0
  1 41  1  0  0  0  0
  2  3  1  0  0  0  0
  2 33  1  0  0  0  0
  2  4  1  0  0  0  0
  4  5  1  0  0  0  0
  4 42  1  0  0  0  0
  4 43  1  0  0  0  0
  5  6  1  0  0  0  0
  5 44  1  0  0  0  0
  5 45  1  0  0  0  0
  6 31  1  0  0  0  0
  6  7  1  0  0  0  0
  6 37  1  0  0  0  0
  7  8  1  0  0  0  0
  7 46  1  0  0  0  0
  7 47  1  0  0  0  0
  8  9  1  0  0  0  0
  8 48  1  0  0  0  0
  8 49  1  0  0  0  0
  9 15  1  0  0  0  0
  9 10  1  0  0  0  0
  9 36  1  0  0  0  0
 10 11  2  0  0  0  0
 10 31  1  0  0  0  0
 11 12  1  0  0  0  0
 11 50  1  0  0  0  0
 12 13  1  0  0  0  0
 12 51  1  0  0  0  0
 12 52  1  0  0  0  0
 13 14  1  0  0  0  0
 13 20  1  0  0  0  0
 13 15  1  0  0  0  0
 15 16  1  0  0  0  0
 15 30  1  0  0  0  0
 16 17  1  0  0  0  0
 16 53  1  0  0  0  0
 16 54  1  0  0  0  0
 17 18  1  0  0  0  0
 17 55  1  0  0  0  0
 17 56  1  0  0  0  0
 18 19  1  0  0  0  0
 18 25  1  0  0  0  0
 18 20  1  0  0  0  0
 20 21  1  0  0  0  0
 20 29  1  0  0  0  0
 21 22  1  0  0  0  0
 21 57  1  0  0  0  0
 21 58  1  0  0  0  0
 22 23  1  0  0  0  0
 22 59  1  0  0  0  0
 22 60  1  0  0  0  0
 23 24  2  0  0  0  0
 23 25  1  0  0  0  0
 25 26  1  0  0  0  0
 25 27  1  0  0  0  0
 26 61  1  0  0  0  0
 26 62  1  0  0  0  0
 26 63  1  0  0  0  0
 27 28  1  0  0  0  0
 27 64  1  0  0  0  0
 27 65  1  0  0  0  0
 28 66  1  0  0  0  0
 29 67  1  0  0  0  0
 29 68  1  0  0  0  0
 29 69  1  0  0  0  0
 30 70  1  0  0  0  0
 30 71  1  0  0  0  0
 30 72  1  0  0  0  0
 31 32  1  0  0  0  0
 31 33  1  0  0  0  0
 33 34  1  0  0  0  0
 33 35  1  0  0  0  0
 35 73  1  0  0  0  0
 35 74  1  0  0  0  0
 35 75  1  0  0  0  0
 36 76  1  0  0  0  0
 36 77  1  0  0  0  0
 36 78  1  0  0  0  0
 37 38  2  0  0  0  0
 37 79  1  0  0  0  0
M  CHG  1  79  -1
M  END
$$$$
ZINC03934465
  -OEChem-08230709463D

 56 59  0     0  0  0  0  0  0999 V2000
   -0.7527    1.5927   -1.2315 C   0  0  0  0  0  0  0  0  0  0  0  0
   -0.0127    1.0858    0.0080 C   0  0  0  0  0  0  0  0  0  0  0  0
   -0.7181    1.5718    1.2479 C   0  0  0  0  0  0  0  0  0  0  0  0
   -1.7881    0.8774    1.9566 C   0  0  0  0  0  0  0  0  0  0  0  0
   -2.4563   -0.3366    1.7610 C   0  0  0  0  0  0  0  0  0  0  0  0
   -3.4404   -0.7126    2.6284 C   0  0  0  0  0  0  0  0  0  0  0  0
   -3.7846    0.0982    3.7032 C   0  0  0  0  0  0  0  0  0  0  0  0
   -3.1466    1.2872    3.9152 C   0  0  0  0  0  0  0  0  0  0  0  0
   -2.1384    1.6976    3.0463 C   0  0  0  0  0  0  0  0  0  0  0  0
   -1.3294    2.8020    2.9848 N   0  0  0  0  0  0  0  0  0  0  0  0
   -0.4777    2.6840    1.8816 N   0  0  0  0  0  0  0  0  0  0  0  0
   -1.3491    3.9235    3.9272 C   0  0  0  0  0  0  0  0  0  0  0  0
   -1.6741    5.2158    3.1755 C   0  0  0  0  0  0  0  0  0  0  0  0
   -1.6946    6.3870    4.1597 C   0  0  0  0  0  0  0  0  0  0  0  0
   -0.3240    6.5163    4.8273 C   0  0  0  0  0  0  0  0  0  0  0  0
    0.0010    5.2239    5.5791 C   0  0  0  0  0  0  0  0  0  0  0  0
    0.0215    4.0527    4.5948 C   0  0  0  0  0  0  0  0  0  0  0  0
   -4.8749   -0.3399    4.6468 C   0  0  0  0  0  0  0  0  0  0  0  0
   -4.3052   -0.4662    6.0611 C   0  0  0  0  0  0  0  0  0  0  0  0
   -5.4121   -0.9110    7.0190 C   0  0  0  0  0  0  0  0  0  0  0  0
   -5.9629   -2.2654    6.5682 C   0  0  0  0  0  0  0  0  0  0  0  0
   -6.5327   -2.1391    5.1539 C   0  0  0  0  0  0  0  0  0  0  0  0
   -5.4257   -1.6943    4.1960 C   0  0  0  0  0  0  0  0  0  0  0  0
   -4.8539   -3.2857    6.5738 C   0  0  0  0  0  0  0  0  0  0  0  0
   -4.5503   -3.8536    5.5514 O   0  0  0  0  0  0  0  0  0  0  0  0
   -5.9582    0.6567    4.6414 C   0  0  0  0  0  0  0  0  0  0  0  0
   -6.7943    1.4258    4.6372 N   0  0  0  0  0  0  0  0  0  0  0  0
   -0.2425    1.2411   -2.1283 H   0  0  0  0  0  0  0  0  0  0  0  0
   -1.7753    1.2154   -1.2238 H   0  0  0  0  0  0  0  0  0  0  0  0
   -0.7675    2.6825   -1.2255 H   0  0  0  0  0  0  0  0  0  0  0  0
    0.0021   -0.0041    0.0020 H   0  0  0  0  0  0  0  0  0  0  0  0
    1.0099    1.4631    0.0003 H   0  0  0  0  0  0  0  0  0  0  0  0
   -2.1944   -0.9725    0.9283 H   0  0  0  0  0  0  0  0  0  0  0  0
   -3.9568   -1.6492    2.4780 H   0  0  0  0  0  0  0  0  0  0  0  0
   -3.4238    1.9080    4.7544 H   0  0  0  0  0  0  0  0  0  0  0  0
   -2.1086    3.7451    4.6884 H   0  0  0  0  0  0  0  0  0  0  0  0
   -0.9145    5.3942    2.4143 H   0  0  0  0  0  0  0  0  0  0  0  0
   -2.6505    5.1237    2.6999 H   0  0  0  0  0  0  0  0  0  0  0  0
   -2.4541    6.2086    4.9209 H   0  0  0  0  0  0  0  0  0  0  0  0
   -1.9261    7.3077    3.6241 H   0  0  0  0  0  0  0  0  0  0  0  0
   -0.3386    7.3506    5.5285 H   0  0  0  0  0  0  0  0  0  0  0  0
    0.4355    6.6946    4.0661 H   0  0  0  0  0  0  0  0  0  0  0  0
   -0.7585    5.0456    6.3403 H   0  0  0  0  0  0  0  0  0  0  0  0
    0.9775    5.3160    6.0547 H   0  0  0  0  0  0  0  0  0  0  0  0
    0.2531    3.1321    5.1304 H   0  0  0  0  0  0  0  0  0  0  0  0
    0.7811    4.2311    3.8336 H   0  0  0  0  0  0  0  0  0  0  0  0
   -3.5030   -1.2042    6.0651 H   0  0  0  0  0  0  0  0  0  0  0  0
   -3.9128    0.4987    6.3822 H   0  0  0  0  0  0  0  0  0  0  0  0
   -6.2143   -0.1730    7.0150 H   0  0  0  0  0  0  0  0  0  0  0  0
   -5.0062   -1.0010    8.0266 H   0  0  0  0  0  0  0  0  0  0  0  0
   -6.7515   -2.5823    7.2507 H   0  0  0  0  0  0  0  0  0  0  0  0
   -7.3349   -1.4011    5.1499 H   0  0  0  0  0  0  0  0  0  0  0  0
   -6.9251   -3.1040    4.8328 H   0  0  0  0  0  0  0  0  0  0  0  0
   -5.8316   -1.6043    3.1884 H   0  0  0  0  0  0  0  0  0  0  0  0
   -4.6235   -2.4323    4.2000 H   0  0  0  0  0  0  0  0  0  0  0  0
   -4.2032   -3.5636    7.7145 O   0  5  0  0  0  0  0  0  0  0  0  0
  1  2  1  0  0  0  0
  1 28  1  0  0  0  0
  1 29  1  0  0  0  0
  1 30  1  0  0  0  0
  2  3  1  0  0  0  0
  2 31  1  0  0  0  0
  2 32  1  0  0  0  0
  3 11  2  0  0  0  0
  3  4  1  0  0  0  0
  4  9  2  0  0  0  0
  4  5  1  0  0  0  0
  5  6  2  0  0  0  0
  5 33  1  0  0  0  0
  6  7  1  0  0  0  0
  6 34  1  0  0  0  0
  7  8  2  0  0  0  0
  7 18  1  0  0  0  0
  8  9  1  0  0  0  0
  8 35  1  0  0  0  0
  9 10  1  0  0  0  0
 10 11  1  0  0  0  0
 10 12  1  0  0  0  0
 12 17  1  0  0  0  0
 12 13  1  0  0  0  0
 12 36  1  0  0  0  0
 13 14  1  0  0  0  0
 13 37  1  0  0  0  0
 13 38  1  0  0  0  0
 14 15  1  0  0  0  0
 14 39  1  0  0  0  0
 14 40  1  0  0  0  0
 15 16  1  0  0  0  0
 15 41  1  0  0  0  0
 15 42  1  0  0  0  0
 16 17  1  0  0  0  0
 16 43  1  0  0  0  0
 16 44  1  0  0  0  0
 17 45  1  0  0  0  0
 17 46  1  0  0  0  0
 18 23  1  0  0  0  0
 18 19  1  0  0  0  0
 18 26  1  0  0  0  0
 19 20  1  0  0  0  0
 19 47  1  0  0  0  0
 19 48  1  0  0  0  0
 20 21  1  0  0  0  0
 20 49  1  0  0  0  0
 20 50  1  0  0  0  0
 21 22  1  0  0  0  0
 21 24  1  0  0  0  0
 21 51  1  0  0  0  0
 22 23  1  0  0  0  0
 22 52  1  0  0  0  0
 22 53  1  0  0  0  0
 23 54  1  0  0  0  0
 23 55  1  0  0  0  0
 24 25  2  0  0  0  0
 24 56  1  0  0  0  0
 26 27  3  0  0  0  0
M  CHG  1  56  -1
M  END
$$$$
ZINC03934467
  -OEChem-08230709463D

 53 56  0     0  0  0  0  0  0999 V2000
   -0.7527    1.5927   -1.2315 C   0  0  0  0  0  0  0  0  0  0  0  0
   -0.0127    1.0858    0.0080 C   0  0  0  0  0  0  0  0  0  0  0  0
   -0.7181    1.5718    1.2479 C   0  0  0  0  0  0  0  0  0  0  0  0
   -0.4491    2.8182    1.9576 C   0  0  0  0  0  0  0  0  0  0  0  0
    0.4487    3.8740    1.7631 C   0  0  0  0  0  0  0  0  0  0  0  0
    0.4504    4.9269    2.6313 C   0  0  0  0  0  0  0  0  0  0  0  0
   -0.4300    4.9598    3.7059 C   0  0  0  0  0  0  0  0  0  0  0  0
   -1.3220    3.9458    3.9111 C   0  0  0  0  0  0  0  0  0  0  0  0
   -1.3434    2.8555    3.0447 C   0  0  0  0  0  0  0  0  0  0  0  0
   -2.0836    1.7037    2.9863 N   0  0  0  0  0  0  0  0  0  0  0  0
   -1.6728    0.9518    1.8807 N   0  0  0  0  0  0  0  0  0  0  0  0
   -3.1361    1.3209    3.9307 C   0  0  0  0  0  0  0  0  0  0  0  0
   -2.7988   -0.0395    4.5751 C   0  0  0  0  0  0  0  0  0  0  0  0
   -4.1709   -0.7476    4.7060 C   0  0  0  0  0  0  0  0  0  0  0  0
   -4.8982   -0.3288    3.4042 C   0  0  0  0  0  0  0  0  0  0  0  0
   -4.4705    1.1374    3.1868 C   0  0  0  0  0  0  0  0  0  0  0  0
   -0.4077    6.1338    4.6505 C   0  0  0  0  0  0  0  0  0  0  0  0
   -1.7758    6.8188    4.6453 C   0  0  0  0  0  0  0  0  0  0  0  0
   -1.7531    8.0107    5.6043 C   0  0  0  0  0  0  0  0  0  0  0  0
   -0.6823    9.0068    5.1547 C   0  0  0  0  0  0  0  0  0  0  0  0
    0.6858    8.3218    5.1599 C   0  0  0  0  0  0  0  0  0  0  0  0
    0.6631    7.1299    4.2009 C   0  0  0  0  0  0  0  0  0  0  0  0
   -0.9975    9.4885    3.7620 C   0  0  0  0  0  0  0  0  0  0  0  0
   -0.2089    9.3031    2.8656 O   0  0  0  0  0  0  0  0  0  0  0  0
   -0.0998    5.6632    6.0109 C   0  0  0  0  0  0  0  0  0  0  0  0
    0.1379    5.3001    7.0607 N   0  0  0  0  0  0  0  0  0  0  0  0
   -1.7753    1.2154   -1.2238 H   0  0  0  0  0  0  0  0  0  0  0  0
   -0.7675    2.6825   -1.2255 H   0  0  0  0  0  0  0  0  0  0  0  0
   -0.2425    1.2411   -2.1283 H   0  0  0  0  0  0  0  0  0  0  0  0
    0.0021   -0.0041    0.0020 H   0  0  0  0  0  0  0  0  0  0  0  0
    1.0099    1.4631    0.0003 H   0  0  0  0  0  0  0  0  0  0  0  0
    1.1361    3.8558    0.9303 H   0  0  0  0  0  0  0  0  0  0  0  0
    1.1429    5.7421    2.4819 H   0  0  0  0  0  0  0  0  0  0  0  0
   -2.0001    3.9832    4.7509 H   0  0  0  0  0  0  0  0  0  0  0  0
   -3.2406    2.0838    4.7022 H   0  0  0  0  0  0  0  0  0  0  0  0
   -2.1338   -0.6130    3.9293 H   0  0  0  0  0  0  0  0  0  0  0  0
   -2.3478    0.1048    5.5569 H   0  0  0  0  0  0  0  0  0  0  0  0
   -4.7092   -0.3865    5.5824 H   0  0  0  0  0  0  0  0  0  0  0  0
   -4.0451   -1.8295    4.7473 H   0  0  0  0  0  0  0  0  0  0  0  0
   -5.9785   -0.3961    3.5321 H   0  0  0  0  0  0  0  0  0  0  0  0
   -4.5726   -0.9489    2.5690 H   0  0  0  0  0  0  0  0  0  0  0  0
   -5.2228    1.8106    3.5979 H   0  0  0  0  0  0  0  0  0  0  0  0
   -4.3350    1.3330    2.1231 H   0  0  0  0  0  0  0  0  0  0  0  0
   -2.0038    7.1672    3.6380 H   0  0  0  0  0  0  0  0  0  0  0  0
   -2.5386    6.1092    4.9656 H   0  0  0  0  0  0  0  0  0  0  0  0
   -1.5251    7.6622    6.6117 H   0  0  0  0  0  0  0  0  0  0  0  0
   -2.7277    8.4986    5.6006 H   0  0  0  0  0  0  0  0  0  0  0  0
   -0.6661    9.8559    5.8379 H   0  0  0  0  0  0  0  0  0  0  0  0
    0.9138    7.9733    6.1672 H   0  0  0  0  0  0  0  0  0  0  0  0
    1.4486    9.0314    4.8396 H   0  0  0  0  0  0  0  0  0  0  0  0
    1.6378    6.6419    4.2046 H   0  0  0  0  0  0  0  0  0  0  0  0
    0.4351    7.4784    3.1936 H   0  0  0  0  0  0  0  0  0  0  0  0
   -2.1545   10.1237    3.5174 O   0  5  0  0  0  0  0  0  0  0  0  0
  1  2  1  0  0  0  0
  1 27  1  0  0  0  0
  1 28  1  0  0  0  0
  1 29  1  0  0  0  0
  2  3  1  0  0  0  0
  2 30  1  0  0  0  0
  2 31  1  0  0  0  0
  3 11  2  0  0  0  0
  3  4  1  0  0  0  0
  4  9  2  0  0  0  0
  4  5  1  0  0  0  0
  5  6  2  0  0  0  0
  5 32  1  0  0  0  0
  6  7  1  0  0  0  0
  6 33  1  0  0  0  0
  7  8  2  0  0  0  0
  7 17  1  0  0  0  0
  8  9  1  0  0  0  0
  8 34  1  0  0  0  0
  9 10  1  0  0  0  0
 10 11  1  0  0  0  0
 10 12  1  0  0  0  0
 12 16  1  0  0  0  0
 12 13  1  0  0  0  0
 12 35  1  0  0  0  0
 13 14  1  0  0  0  0
 13 36  1  0  0  0  0
 13 37  1  0  0  0  0
 14 15  1  0  0  0  0
 14 38  1  0  0  0  0
 14 39  1  0  0  0  0
 15 16  1  0  0  0  0
 15 40  1  0  0  0  0
 15 41  1  0  0  0  0
 16 42  1  0  0  0  0
 16 43  1  0  0  0  0
 17 22  1  0  0  0  0
 17 18  1  0  0  0  0
 17 25  1  0  0  0  0
 18 19  1  0  0  0  0
 18 44  1  0  0  0  0
 18 45  1  0  0  0  0
 19 20  1  0  0  0  0
 19 46  1  0  0  0  0
 19 47  1  0  0  0  0
 20 21  1  0  0  0  0
 20 23  1  0  0  0  0
 20 48  1  0  0  0  0
 21 22  1  0  0  0  0
 21 49  1  0  0  0  0
 21 50  1  0  0  0  0
 22 51  1  0  0  0  0
 22 52  1  0  0  0  0
 23 24  2  0  0  0  0
 23 53  1  0  0  0  0
 25 26  3  0  0  0  0
M  CHG  1  53  -1
M  END
$$$$
ZINC03938871
  -OEChem-08230709463D

 60 62  0     1  0  0  0  0  0999 V2000
   -3.1523   -3.1184    4.4766 C   0  0  0  0  0  0  0  0  0  0  0  0
   -2.3812   -3.9258    3.4305 C   0  0  0  0  0  0  0  0  0  0  0  0
   -3.3586   -4.7888    2.6301 C   0  0  0  0  0  0  0  0  0  0  0  0
   -1.3616   -4.8261    4.1310 C   0  0  0  0  0  0  0  0  0  0  0  0
   -1.6631   -2.9841    2.4984 C   0  0  0  0  0  0  0  0  0  0  0  0
   -1.7725   -1.6215    2.6779 C   0  0  0  0  0  0  0  0  0  0  0  0
   -1.1064   -0.7496    1.8132 C   0  0  0  0  0  0  0  0  0  0  0  0
   -0.3367   -1.2634    0.7666 C   0  0  0  0  0  0  0  0  0  0  0  0
   -0.2279   -2.6276    0.5991 C   0  0  0  0  0  0  0  0  0  0  0  0
   -0.8921   -3.4901    1.4607 C   0  0  0  0  0  0  0  0  0  0  0  0
   -0.7867   -4.8344    1.2880 O   0  0  0  0  0  0  0  0  0  0  0  0
    0.6083   -3.1833   -0.5247 C   0  0  0  0  0  0  0  0  0  0  0  0
    1.1933   -2.0306   -1.3432 C   0  0  0  0  0  0  0  0  0  0  0  0
    1.7461   -4.0262    0.0547 C   0  0  0  0  0  0  0  0  0  0  0  0
   -0.2656   -4.0571   -1.4267 C   0  0  0  0  0  0  0  0  0  0  0  0
   -1.2202    0.7091    2.0010 C   0  0  0  0  0  0  0  0  0  0  0  0
   -0.1446    1.4897    1.8453 C   0  0  0  0  0  0  0  0  0  0  0  0
    1.2463    0.9154    1.6382 C   0  0  0  0  0  0  0  0  0  0  0  0
    1.6962    1.2916    0.3048 N   0  0  1  0  0  0  0  0  0  0  0  0
    1.6985    2.6474   -0.0020 C   0  0  0  0  0  0  0  0  0  0  0  0
    2.6189    3.0402   -0.9828 C   0  0  0  0  0  0  0  0  0  0  0  0
    2.6988    4.3497   -1.3999 C   0  0  0  0  0  0  0  0  0  0  0  0
    1.8613    5.3045   -0.8525 C   0  0  0  0  0  0  0  0  0  0  0  0
    0.9586    4.9373    0.1231 C   0  0  0  0  0  0  0  0  0  0  0  0
    0.8823    3.6168    0.5624 C   0  0  0  0  0  0  0  0  0  0  0  0
   -0.2536    3.2547    1.8657 S   0  0  0  0  0  0  0  0  0  0  0  0
    2.9952    0.6795   -0.0048 C   0  0  0  0  0  0  0  0  0  0  0  0
    4.0589    1.2880    0.8723 C   0  0  0  0  0  0  0  0  0  0  0  0
    3.7552    2.0947    1.7190 O   0  0  0  0  0  0  0  0  0  0  0  0
   -3.8787   -2.4770    3.9775 H   0  0  0  0  0  0  0  0  0  0  0  0
   -3.6717   -3.7994    5.1508 H   0  0  0  0  0  0  0  0  0  0  0  0
   -2.4560   -2.5035    5.0468 H   0  0  0  0  0  0  0  0  0  0  0  0
   -2.8093   -5.3640    1.8849 H   0  0  0  0  0  0  0  0  0  0  0  0
   -3.8780   -5.4699    3.3043 H   0  0  0  0  0  0  0  0  0  0  0  0
   -4.0850   -4.1474    2.1310 H   0  0  0  0  0  0  0  0  0  0  0  0
   -0.6652   -4.2112    4.7012 H   0  0  0  0  0  0  0  0  0  0  0  0
   -1.8810   -5.5071    4.8052 H   0  0  0  0  0  0  0  0  0  0  0  0
   -0.8122   -5.4013    3.3858 H   0  0  0  0  0  0  0  0  0  0  0  0
   -2.3720   -1.2288    3.4858 H   0  0  0  0  0  0  0  0  0  0  0  0
    0.1764   -0.5931    0.0930 H   0  0  0  0  0  0  0  0  0  0  0  0
   -1.4623   -5.2104    0.7071 H   0  0  0  0  0  0  0  0  0  0  0  0
    1.8837   -1.4585   -0.7234 H   0  0  0  0  0  0  0  0  0  0  0  0
    1.7260   -2.4311   -2.2058 H   0  0  0  0  0  0  0  0  0  0  0  0
    0.3871   -1.3809   -1.6837 H   0  0  0  0  0  0  0  0  0  0  0  0
    1.3294   -4.8474    0.6378 H   0  0  0  0  0  0  0  0  0  0  0  0
    2.3509   -4.4281   -0.7582 H   0  0  0  0  0  0  0  0  0  0  0  0
    2.3687   -3.4036    0.6973 H   0  0  0  0  0  0  0  0  0  0  0  0
   -1.0762   -3.4566   -1.8395 H   0  0  0  0  0  0  0  0  0  0  0  0
    0.3392   -4.4590   -2.2396 H   0  0  0  0  0  0  0  0  0  0  0  0
   -0.6823   -4.8784   -0.8436 H   0  0  0  0  0  0  0  0  0  0  0  0
   -2.1717    1.1471    2.2641 H   0  0  0  0  0  0  0  0  0  0  0  0
    1.2128   -0.1708    1.7229 H   0  0  0  0  0  0  0  0  0  0  0  0
    1.9278    1.3222    2.3853 H   0  0  0  0  0  0  0  0  0  0  0  0
    3.2767    2.3030   -1.4191 H   0  0  0  0  0  0  0  0  0  0  0  0
    3.4166    4.6318   -2.1559 H   0  0  0  0  0  0  0  0  0  0  0  0
    1.9141    6.3303   -1.1864 H   0  0  0  0  0  0  0  0  0  0  0  0
    0.3031    5.6811    0.5513 H   0  0  0  0  0  0  0  0  0  0  0  0
    2.9439   -0.3938    0.1779 H   0  0  0  0  0  0  0  0  0  0  0  0
    3.2410    0.8586   -1.0515 H   0  0  0  0  0  0  0  0  0  0  0  0
    5.3438    0.9339    0.7129 O   0  5  0  0  0  0  0  0  0  0  0  0
  1  2  1  0  0  0  0
  1 30  1  0  0  0  0
  1 31  1  0  0  0  0
  1 32  1  0  0  0  0
  2  3  1  0  0  0  0
  2  4  1  0  0  0  0
  2  5  1  0  0  0  0
  3 33  1  0  0  0  0
  3 34  1  0  0  0  0
  3 35  1  0  0  0  0
  4 36  1  0  0  0  0
  4 37  1  0  0  0  0
  4 38  1  0  0  0  0
  5 10  2  0  0  0  0
  5  6  1  0  0  0  0
  6  7  2  0  0  0  0
  6 39  1  0  0  0  0
  7  8  1  0  0  0  0
  7 16  1  0  0  0  0
  8  9  2  0  0  0  0
  8 40  1  0  0  0  0
  9 10  1  0  0  0  0
  9 12  1  0  0  0  0
 10 11  1  0  0  0  0
 11 41  1  0  0  0  0
 12 13  1  0  0  0  0
 12 14  1  0  0  0  0
 12 15  1  0  0  0  0
 13 42  1  0  0  0  0
 13 43  1  0  0  0  0
 13 44  1  0  0  0  0
 14 45  1  0  0  0  0
 14 46  1  0  0  0  0
 14 47  1  0  0  0  0
 15 48  1  0  0  0  0
 15 49  1  0  0  0  0
 15 50  1  0  0  0  0
 16 17  2  0  0  0  0
 16 51  1  0  0  0  0
 17 26  1  0  0  0  0
 17 18  1  0  0  0  0
 18 19  1  0  0  0  0
 18 52  1  0  0  0  0
 18 53  1  0  0  0  0
 19 20  1  0  0  0  0
 19 27  1  0  0  0  0
 20 25  2  0  0  0  0
 20 21  1  0  0  0  0
 21 22  2  0  0  0  0
 21 54  1  0  0  0  0
 22 23  1  0  0  0  0
 22 55  1  0  0  0  0
 23 24  2  0  0  0  0
 23 56  1  0  0  0  0
 24 25  1  0  0  0  0
 24 57  1  0  0  0  0
 25 26  1  0  0  0  0
 27 28  1  0  0  0  0
 27 58  1  0  0  0  0
 27 59  1  0  0  0  0
 28 29  2  0  0  0  0
 28 60  1  0  0  0  0
M  CHG  1  60  -1
M  END
$$$$
ZINC03941078
  -OEChem-08230709463D

 55 58  0     0  0  0  0  0  0999 V2000
   -2.7902    2.9865   -4.5858 C   0  0  0  0  0  0  0  0  0  0  0  0
   -2.3247    2.6652   -5.8506 C   0  0  0  0  0  0  0  0  0  0  0  0
   -1.1931    1.8889   -6.0020 C   0  0  0  0  0  0  0  0  0  0  0  0
   -0.5141    1.4244   -4.8853 C   0  0  0  0  0  0  0  0  0  0  0  0
   -0.9817    1.7471   -3.6043 C   0  0  0  0  0  0  0  0  0  0  0  0
   -2.1308    2.5295   -3.4656 C   0  0  0  0  0  0  0  0  0  0  0  0
   -0.2681    1.2584   -2.4090 C   0  0  0  0  0  0  0  0  0  0  0  0
    0.7287    0.5735   -2.5338 O   0  0  0  0  0  0  0  0  0  0  0  0
   -0.7213    1.5711   -1.1789 N   0  0  0  0  0  0  0  0  0  0  0  0
   -0.0127    1.0858    0.0080 C   0  0  0  0  0  0  0  0  0  0  0  0
   -0.7288    1.5792    1.2668 C   0  0  0  0  0  0  0  0  0  0  0  0
   -0.7496    3.1091    1.2752 C   0  0  0  0  0  0  0  0  0  0  0  0
   -1.4657    3.6025    2.5340 C   0  0  0  0  0  0  0  0  0  0  0  0
   -0.7257    3.0957    3.7736 C   0  0  0  0  0  0  0  0  0  0  0  0
   -0.7050    1.5658    3.7651 C   0  0  0  0  0  0  0  0  0  0  0  0
    0.0111    1.0724    2.5063 C   0  0  0  0  0  0  0  0  0  0  0  0
   -2.1404    1.0362    3.7760 C   0  0  0  0  0  0  0  0  0  0  0  0
   -2.8804    1.5431    2.5365 C   0  0  0  0  0  0  0  0  0  0  0  0
   -2.9011    3.0729    2.5449 C   0  0  0  0  0  0  0  0  0  0  0  0
   -2.1642    1.0497    1.2777 C   0  0  0  0  0  0  0  0  0  0  0  0
    0.5974    0.6608   -5.0326 O   0  0  0  0  0  0  0  0  0  0  0  0
    1.0143    0.3728   -6.3687 C   0  0  0  0  0  0  0  0  0  0  0  0
    2.2752   -0.4932   -6.3340 C   0  0  0  0  0  0  0  0  0  0  0  0
    2.7216   -0.8016   -7.7646 C   0  0  0  0  0  0  0  0  0  0  0  0
    3.9635   -1.6546   -7.7305 C   0  0  0  0  0  0  0  0  0  0  0  0
    4.4424   -1.9822   -6.6707 O   0  0  0  0  0  0  0  0  0  0  0  0
   -3.6764    3.5941   -4.4775 H   0  0  0  0  0  0  0  0  0  0  0  0
   -2.8503    3.0239   -6.7232 H   0  0  0  0  0  0  0  0  0  0  0  0
   -0.8364    1.6427   -6.9913 H   0  0  0  0  0  0  0  0  0  0  0  0
   -2.4998    2.7787   -2.4816 H   0  0  0  0  0  0  0  0  0  0  0  0
   -1.5165    2.1175   -1.0793 H   0  0  0  0  0  0  0  0  0  0  0  0
    0.0021   -0.0041    0.0020 H   0  0  0  0  0  0  0  0  0  0  0  0
    1.0099    1.4631    0.0003 H   0  0  0  0  0  0  0  0  0  0  0  0
    0.2730    3.4864    1.2675 H   0  0  0  0  0  0  0  0  0  0  0  0
   -1.2768    3.4701    0.3922 H   0  0  0  0  0  0  0  0  0  0  0  0
   -1.4805    4.6924    2.5400 H   0  0  0  0  0  0  0  0  0  0  0  0
   -1.2359    3.4472    4.6704 H   0  0  0  0  0  0  0  0  0  0  0  0
    0.2969    3.4729    3.7658 H   0  0  0  0  0  0  0  0  0  0  0  0
   -0.1778    1.2047    4.6482 H   0  0  0  0  0  0  0  0  0  0  0  0
    0.0259   -0.0175    2.5003 H   0  0  0  0  0  0  0  0  0  0  0  0
    1.0337    1.4497    2.4986 H   0  0  0  0  0  0  0  0  0  0  0  0
   -2.1256   -0.0536    3.7700 H   0  0  0  0  0  0  0  0  0  0  0  0
   -2.6506    1.3878    4.6728 H   0  0  0  0  0  0  0  0  0  0  0  0
   -3.9030    1.1658    2.5442 H   0  0  0  0  0  0  0  0  0  0  0  0
   -3.4113    3.4244    3.4417 H   0  0  0  0  0  0  0  0  0  0  0  0
   -3.4283    3.4340    1.6618 H   0  0  0  0  0  0  0  0  0  0  0  0
   -2.6914    1.4107    0.3946 H   0  0  0  0  0  0  0  0  0  0  0  0
   -2.1494   -0.0402    1.2717 H   0  0  0  0  0  0  0  0  0  0  0  0
    0.2203   -0.1622   -6.8897 H   0  0  0  0  0  0  0  0  0  0  0  0
    1.2281    1.3050   -6.8915 H   0  0  0  0  0  0  0  0  0  0  0  0
    3.0692    0.0417   -5.8130 H   0  0  0  0  0  0  0  0  0  0  0  0
    2.0614   -1.4255   -5.8112 H   0  0  0  0  0  0  0  0  0  0  0  0
    1.9276   -1.3365   -8.2857 H   0  0  0  0  0  0  0  0  0  0  0  0
    2.9354    0.1307   -8.2874 H   0  0  0  0  0  0  0  0  0  0  0  0
    4.5376   -2.0503   -8.8775 O   0  5  0  0  0  0  0  0  0  0  0  0
  1  6  2  0  0  0  0
  1  2  1  0  0  0  0
  1 27  1  0  0  0  0
  2  3  2  0  0  0  0
  2 28  1  0  0  0  0
  3  4  1  0  0  0  0
  3 29  1  0  0  0  0
  4  5  2  0  0  0  0
  4 21  1  0  0  0  0
  5  6  1  0  0  0  0
  5  7  1  0  0  0  0
  6 30  1  0  0  0  0
  7  8  2  0  0  0  0
  7  9  1  0  0  0  0
  9 10  1  0  0  0  0
  9 31  1  0  0  0  0
 10 11  1  0  0  0  0
 10 32  1  0  0  0  0
 10 33  1  0  0  0  0
 11 16  1  0  0  0  0
 11 20  1  0  0  0  0
 11 12  1  0  0  0  0
 12 13  1  0  0  0  0
 12 34  1  0  0  0  0
 12 35  1  0  0  0  0
 13 19  1  0  0  0  0
 13 14  1  0  0  0  0
 13 36  1  0  0  0  0
 14 15  1  0  0  0  0
 14 37  1  0  0  0  0
 14 38  1  0  0  0  0
 15 16  1  0  0  0  0
 15 17  1  0  0  0  0
 15 39  1  0  0  0  0
 16 40  1  0  0  0  0
 16 41  1  0  0  0  0
 17 18  1  0  0  0  0
 17 42  1  0  0  0  0
 17 43  1  0  0  0  0
 18 19  1  0  0  0  0
 18 20  1  0  0  0  0
 18 44  1  0  0  0  0
 19 45  1  0  0  0  0
 19 46  1  0  0  0  0
 20 47  1  0  0  0  0
 20 48  1  0  0  0  0
 21 22  1  0  0  0  0
 22 23  1  0  0  0  0
 22 49  1  0  0  0  0
 22 50  1  0  0  0  0
 23 24  1  0  0  0  0
 23 51  1  0  0  0  0
 23 52  1  0  0  0  0
 24 25  1  0  0  0  0
 24 53  1  0  0  0  0
 24 54  1  0  0  0  0
 25 26  2  0  0  0  0
 25 55  1  0  0  0  0
M  CHG  1  55  -1
M  END
$$$$
ZINC03941170
  -OEChem-08230709463D

 61 64  0     1  0  0  0  0  0999 V2000
   -9.2364    8.0118   -4.9063 C   0  0  0  0  0  0  0  0  0  0  0  0
   -8.0234    7.3456   -4.7995 C   0  0  0  0  0  0  0  0  0  0  0  0
   -8.0187    5.9951   -4.5144 C   0  0  0  0  0  0  0  0  0  0  0  0
  -10.3279    5.9404   -4.4238 C   0  0  0  0  0  0  0  0  0  0  0  0
  -10.4064    7.2964   -4.7109 C   0  0  0  0  0  0  0  0  0  0  0  0
  -11.7273    8.0097   -4.8130 C   0  0  0  0  0  0  0  0  0  0  0  0
  -12.8557    7.0092   -5.0652 C   0  0  0  0  0  0  0  0  0  0  0  0
  -12.7613    5.8856   -4.0246 C   0  0  0  0  0  0  0  0  0  0  0  0
  -11.4847    5.1885   -4.2282 N   0  0  0  0  0  0  0  0  0  0  0  0
   -6.7065    5.2628   -4.4008 C   0  0  0  0  0  0  0  0  0  0  0  0
   -6.6295    4.5619   -3.0429 C   0  0  0  0  0  0  0  0  0  0  0  0
   -5.2973    3.8185   -2.9276 C   0  0  0  0  0  0  0  0  0  0  0  0
   -5.2203    3.1176   -1.5697 C   0  0  0  0  0  0  0  0  0  0  0  0
   -3.8880    2.3741   -1.4544 C   0  0  0  0  0  0  0  0  0  0  0  0
   -3.8110    1.6733   -0.0965 C   0  0  0  0  0  0  0  0  0  0  0  0
   -2.4788    0.9298    0.0189 C   0  0  1  0  0  0  0  0  0  0  0  0
   -2.3667    0.2518   -0.8272 H   0  0  0  0  0  0  0  0  0  0  0  0
   -1.3295    1.9397    0.0189 C   0  0  0  0  0  0  0  0  0  0  0  0
   -0.0143    1.2041    0.0087 C   0  0  0  0  0  0  0  0  0  0  0  0
    0.0021   -0.0041    0.0020 O   0  0  0  0  0  0  0  0  0  0  0  0
   -2.4537    0.1402    1.3022 C   0  0  0  0  0  0  0  0  0  0  0  0
   -2.0579    0.7540    2.4760 C   0  0  0  0  0  0  0  0  0  0  0  0
   -2.0385    0.0242    3.6517 C   0  0  0  0  0  0  0  0  0  0  0  0
   -2.4107   -1.3198    3.6097 C   0  0  0  0  0  0  0  0  0  0  0  0
   -2.7961   -1.8594    2.3895 C   0  0  0  0  0  0  0  0  0  0  0  0
   -2.8044   -1.1314    1.2936 N   0  0  0  0  0  0  0  0  0  0  0  0
   -3.1585   -3.3109    2.6456 C   0  0  0  0  0  0  0  0  0  0  0  0
   -3.2993   -3.3397    4.1858 C   0  0  0  0  0  0  0  0  0  0  0  0
   -2.4617   -2.2476    4.6024 O   0  0  0  0  0  0  0  0  0  0  0  0
   -9.2672    9.0674   -5.1326 H   0  0  0  0  0  0  0  0  0  0  0  0
   -7.0940    7.8769   -4.9420 H   0  0  0  0  0  0  0  0  0  0  0  0
  -11.6886    8.7242   -5.6352 H   0  0  0  0  0  0  0  0  0  0  0  0
  -11.9191    8.5422   -3.8815 H   0  0  0  0  0  0  0  0  0  0  0  0
  -12.7552    6.5897   -6.0661 H   0  0  0  0  0  0  0  0  0  0  0  0
  -13.8190    7.5112   -4.9745 H   0  0  0  0  0  0  0  0  0  0  0  0
  -13.5880    5.1880   -4.1591 H   0  0  0  0  0  0  0  0  0  0  0  0
  -12.7949    6.3080   -3.0204 H   0  0  0  0  0  0  0  0  0  0  0  0
  -11.4472    4.2192   -4.2260 H   0  0  0  0  0  0  0  0  0  0  0  0
   -5.8849    5.9735   -4.4899 H   0  0  0  0  0  0  0  0  0  0  0  0
   -6.6339    4.5217   -5.1968 H   0  0  0  0  0  0  0  0  0  0  0  0
   -7.4511    3.8512   -2.9538 H   0  0  0  0  0  0  0  0  0  0  0  0
   -6.7021    5.3030   -2.2469 H   0  0  0  0  0  0  0  0  0  0  0  0
   -4.4757    4.5292   -3.0167 H   0  0  0  0  0  0  0  0  0  0  0  0
   -5.2246    3.0774   -3.7236 H   0  0  0  0  0  0  0  0  0  0  0  0
   -6.0419    2.4069   -1.4806 H   0  0  0  0  0  0  0  0  0  0  0  0
   -5.2929    3.8587   -0.7737 H   0  0  0  0  0  0  0  0  0  0  0  0
   -3.0664    3.0848   -1.5435 H   0  0  0  0  0  0  0  0  0  0  0  0
   -3.8154    1.6331   -2.2504 H   0  0  0  0  0  0  0  0  0  0  0  0
   -4.6327    0.9626   -0.0074 H   0  0  0  0  0  0  0  0  0  0  0  0
   -3.8837    2.4143    0.6995 H   0  0  0  0  0  0  0  0  0  0  0  0
   -1.3915    2.5607    0.9126 H   0  0  0  0  0  0  0  0  0  0  0  0
   -1.4000    2.5704   -0.8673 H   0  0  0  0  0  0  0  0  0  0  0  0
   -1.7704    1.7950    2.4762 H   0  0  0  0  0  0  0  0  0  0  0  0
   -1.7373    0.4841    4.5813 H   0  0  0  0  0  0  0  0  0  0  0  0
   -4.1018   -3.5675    2.1635 H   0  0  0  0  0  0  0  0  0  0  0  0
   -2.3604   -3.9756    2.3150 H   0  0  0  0  0  0  0  0  0  0  0  0
   -4.3340   -3.1678    4.4823 H   0  0  0  0  0  0  0  0  0  0  0  0
   -2.9325   -4.2835    4.5895 H   0  0  0  0  0  0  0  0  0  0  0  0
   -9.1456    5.2606   -4.3182 N   0  3  0  0  0  0  0  0  0  0  0  0
   -9.1114    4.2571   -4.1040 H   0  0  0  0  0  0  0  0  0  0  0  0
    1.1389    1.8910    0.0013 O   0  5  0  0  0  0  0  0  0  0  0  0
  1  5  2  0  0  0  0
  1  2  1  0  0  0  0
  1 30  1  0  0  0  0
  2  3  2  0  0  0  0
  2 31  1  0  0  0  0
  3 10  1  0  0  0  0
  3 59  1  0  0  0  0
  4  9  1  0  0  0  0
  4  5  1  0  0  0  0
  4 59  2  0  0  0  0
  5  6  1  0  0  0  0
  6  7  1  0  0  0  0
  6 32  1  0  0  0  0
  6 33  1  0  0  0  0
  7  8  1  0  0  0  0
  7 34  1  0  0  0  0
  7 35  1  0  0  0  0
  8  9  1  0  0  0  0
  8 36  1  0  0  0  0
  8 37  1  0  0  0  0
  9 38  1  0  0  0  0
 10 11  1  0  0  0  0
 10 39  1  0  0  0  0
 10 40  1  0  0  0  0
 11 12  1  0  0  0  0
 11 41  1  0  0  0  0
 11 42  1  0  0  0  0
 12 13  1  0  0  0  0
 12 43  1  0  0  0  0
 12 44  1  0  0  0  0
 13 14  1  0  0  0  0
 13 45  1  0  0  0  0
 13 46  1  0  0  0  0
 14 15  1  0  0  0  0
 14 47  1  0  0  0  0
 14 48  1  0  0  0  0
 15 16  1  0  0  0  0
 15 49  1  0  0  0  0
 15 50  1  0  0  0  0
 16 17  1  0  0  0  0
 16 18  1  0  0  0  0
 16 21  1  0  0  0  0
 18 19  1  0  0  0  0
 18 51  1  0  0  0  0
 18 52  1  0  0  0  0
 19 20  2  0  0  0  0
 19 61  1  0  0  0  0
 21 26  2  0  0  0  0
 21 22  1  0  0  0  0
 22 23  2  0  0  0  0
 22 53  1  0  0  0  0
 23 24  1  0  0  0  0
 23 54  1  0  0  0  0
 24 29  1  0  0  0  0
 24 25  2  0  0  0  0
 25 26  1  0  0  0  0
 25 27  1  0  0  0  0
 27 28  1  0  0  0  0
 27 55  1  0  0  0  0
 27 56  1  0  0  0  0
 28 29  1  0  0  0  0
 28 57  1  0  0  0  0
 28 58  1  0  0  0  0
 59 60  1  0  0  0  0
M  CHG  2  59   1  61  -1
M  END
$$$$
ZINC03942273
  -OEChem-08230709463D

 57 60  0     1  0  0  0  0  0999 V2000
   -1.3424    3.8921   -0.4611 C   0  0  0  0  0  0  0  0  0  0  0  0
   -1.8731    2.4711   -0.6613 C   0  0  2  0  0  0  0  0  0  0  0  0
   -3.1631    2.5355   -1.4505 C   0  0  0  0  0  0  0  0  0  0  0  0
   -4.1199    3.4847   -0.7042 C   0  0  0  0  0  0  0  0  0  0  0  0
   -4.3411    3.0107    0.7250 C   0  0  2  0  0  0  0  0  0  0  0  0
   -4.8135    2.0297    0.6741 H   0  0  0  0  0  0  0  0  0  0  0  0
   -5.2591    3.9294    1.4796 C   0  0  0  0  0  0  0  0  0  0  0  0
   -6.2839    4.5534    0.7786 C   0  0  0  0  0  0  0  0  0  0  0  0
   -7.1612    5.3993    1.4184 C   0  0  0  0  0  0  0  0  0  0  0  0
   -7.0195    5.6305    2.7883 C   0  0  0  0  0  0  0  0  0  0  0  0
   -5.9890    5.0058    3.4867 C   0  0  0  0  0  0  0  0  0  0  0  0
   -5.1060    4.1603    2.8322 C   0  0  0  0  0  0  0  0  0  0  0  0
   -3.9995    3.5436    3.6469 C   0  0  0  0  0  0  0  0  0  0  0  0
   -3.3351    2.3886    2.8991 C   0  0  0  0  0  0  0  0  0  0  0  0
   -3.0142    2.8592    1.4801 C   0  0  1  0  0  0  0  0  0  0  0  0
   -2.4917    3.8155    1.5026 H   0  0  0  0  0  0  0  0  0  0  0  0
   -2.1852    1.8403    0.7246 C   0  0  2  0  0  0  0  0  0  0  0  0
   -2.7308    0.9033    0.6136 H   0  0  0  0  0  0  0  0  0  0  0  0
   -0.7678    1.6006    1.2639 C   0  0  0  0  0  0  0  0  0  0  0  0
   -0.0127    1.0858    0.0080 C   0  0  0  0  0  0  0  0  0  0  0  0
   -0.7777    1.6046   -1.2056 C   0  0  0  0  0  0  0  0  0  0  0  0
   -0.5341    1.3519   -2.4361 N   0  0  0  0  0  0  0  0  0  0  0  0
    0.5475    0.5072   -2.7847 O   0  0  0  0  0  0  0  0  0  0  0  0
    0.7026    0.3124   -4.1919 C   0  0  0  0  0  0  0  0  0  0  0  0
    0.9471    1.6621   -4.8697 C   0  0  0  0  0  0  0  0  0  0  0  0
    1.8944   -0.6116   -4.4505 C   0  0  0  0  0  0  0  0  0  0  0  0
   -0.5676   -0.3220   -4.7620 C   0  0  0  0  0  0  0  0  0  0  0  0
   -7.9561    6.5307    3.4917 C   0  0  0  0  0  0  0  0  0  0  0  0
   -7.8289    6.7287    4.6834 O   0  0  0  0  0  0  0  0  0  0  0  0
   -1.0267    4.3006   -1.4210 H   0  0  0  0  0  0  0  0  0  0  0  0
   -2.1297    4.5181   -0.0411 H   0  0  0  0  0  0  0  0  0  0  0  0
   -0.4929    3.8699    0.2215 H   0  0  0  0  0  0  0  0  0  0  0  0
   -2.9657    2.9209   -2.4508 H   0  0  0  0  0  0  0  0  0  0  0  0
   -3.6058    1.5417   -1.5170 H   0  0  0  0  0  0  0  0  0  0  0  0
   -5.0768    3.5128   -1.2254 H   0  0  0  0  0  0  0  0  0  0  0  0
   -3.6905    4.4865   -0.6879 H   0  0  0  0  0  0  0  0  0  0  0  0
   -6.3930    4.3728   -0.2806 H   0  0  0  0  0  0  0  0  0  0  0  0
   -7.9534    5.8812    0.8647 H   0  0  0  0  0  0  0  0  0  0  0  0
   -5.8767    5.1814    4.5464 H   0  0  0  0  0  0  0  0  0  0  0  0
   -3.2506    4.3048    3.8654 H   0  0  0  0  0  0  0  0  0  0  0  0
   -4.4119    3.1710    4.5845 H   0  0  0  0  0  0  0  0  0  0  0  0
   -4.0148    1.5374    2.8592 H   0  0  0  0  0  0  0  0  0  0  0  0
   -2.4150    2.1017    3.4082 H   0  0  0  0  0  0  0  0  0  0  0  0
   -0.7744    0.8441    2.0485 H   0  0  0  0  0  0  0  0  0  0  0  0
   -0.3286    2.5305    1.6252 H   0  0  0  0  0  0  0  0  0  0  0  0
    0.0021   -0.0041    0.0020 H   0  0  0  0  0  0  0  0  0  0  0  0
    1.0063    1.4727    0.0004 H   0  0  0  0  0  0  0  0  0  0  0  0
    1.8521    2.1140   -4.4635 H   0  0  0  0  0  0  0  0  0  0  0  0
    1.0655    1.5135   -5.9430 H   0  0  0  0  0  0  0  0  0  0  0  0
    0.0981    2.3203   -4.6855 H   0  0  0  0  0  0  0  0  0  0  0  0
    1.7202   -1.5731   -3.9676 H   0  0  0  0  0  0  0  0  0  0  0  0
    2.0128   -0.7602   -5.5238 H   0  0  0  0  0  0  0  0  0  0  0  0
    2.7993   -0.1596   -4.0443 H   0  0  0  0  0  0  0  0  0  0  0  0
   -1.4166    0.3362   -4.5778 H   0  0  0  0  0  0  0  0  0  0  0  0
   -0.4493   -0.4706   -5.8353 H   0  0  0  0  0  0  0  0  0  0  0  0
   -0.7418   -1.2835   -4.2791 H   0  0  0  0  0  0  0  0  0  0  0  0
   -8.9514    7.1320    2.8116 O   0  5  0  0  0  0  0  0  0  0  0  0
  1  2  1  0  0  0  0
  1 30  1  0  0  0  0
  1 31  1  0  0  0  0
  1 32  1  0  0  0  0
  2 17  1  0  0  0  0
  2 21  1  0  0  0  0
  2  3  1  0  0  0  0
  3  4  1  0  0  0  0
  3 33  1  0  0  0  0
  3 34  1  0  0  0  0
  4  5  1  0  0  0  0
  4 35  1  0  0  0  0
  4 36  1  0  0  0  0
  5  6  1  0  0  0  0
  5 15  1  0  0  0  0
  5  7  1  0  0  0  0
  7 12  2  0  0  0  0
  7  8  1  0  0  0  0
  8  9  2  0  0  0  0
  8 37  1  0  0  0  0
  9 10  1  0  0  0  0
  9 38  1  0  0  0  0
 10 11  2  0  0  0  0
 10 28  1  0  0  0  0
 11 12  1  0  0  0  0
 11 39  1  0  0  0  0
 12 13  1  0  0  0  0
 13 14  1  0  0  0  0
 13 40  1  0  0  0  0
 13 41  1  0  0  0  0
 14 15  1  0  0  0  0
 14 42  1  0  0  0  0
 14 43  1  0  0  0  0
 15 16  1  0  0  0  0
 15 17  1  0  0  0  0
 17 18  1  0  0  0  0
 17 19  1  0  0  0  0
 19 20  1  0  0  0  0
 19 44  1  0  0  0  0
 19 45  1  0  0  0  0
 20 21  1  0  0  0  0
 20 46  1  0  0  0  0
 20 47  1  0  0  0  0
 21 22  2  0  0  0  0
 22 23  1  0  0  0  0
 23 24  1  0  0  0  0
 24 25  1  0  0  0  0
 24 26  1  0  0  0  0
 24 27  1  0  0  0  0
 25 48  1  0  0  0  0
 25 49  1  0  0  0  0
 25 50  1  0  0  0  0
 26 51  1  0  0  0  0
 26 52  1  0  0  0  0
 26 53  1  0  0  0  0
 27 54  1  0  0  0  0
 27 55  1  0  0  0  0
 27 56  1  0  0  0  0
 28 29  2  0  0  0  0
 28 57  1  0  0  0  0
M  CHG  1  57  -1
M  END
$$$$
ZINC03946713
  -OEChem-08230709463D

 67 70  0     1  0  0  0  0  0999 V2000
   -1.5959   -0.9373    2.7384 C   0  0  0  0  0  0  0  0  0  0  0  0
   -0.1932   -0.3488    2.5742 C   0  0  0  0  0  0  0  0  0  0  0  0
   -0.2434    1.1623    2.8084 C   0  0  2  0  0  0  0  0  0  0  0  0
   -0.6861    1.3633    3.7840 H   0  0  0  0  0  0  0  0  0  0  0  0
   -1.0971    1.8184    1.7185 C   0  0  0  0  0  0  0  0  0  0  0  0
   -0.4655    1.5413    0.3558 C   0  0  2  0  0  0  0  0  0  0  0  0
   -0.4044    0.4641    0.2009 H   0  0  0  0  0  0  0  0  0  0  0  0
    0.9442    2.1358    0.3215 C   0  0  2  0  0  0  0  0  0  0  0  0
    1.5344    1.9332   -1.0483 C   0  0  0  0  0  0  0  0  0  0  0  0
    0.7377    2.0518   -2.1135 C   0  0  0  0  0  0  0  0  0  0  0  0
   -0.6834    2.3880   -1.9103 C   0  0  0  0  0  0  0  0  0  0  0  0
   -1.3256    2.9028   -2.8056 O   0  0  0  0  0  0  0  0  0  0  0  0
   -1.2730    2.1352   -0.7077 N   0  0  0  0  0  0  0  0  0  0  0  0
    1.7992    1.4565    1.3885 C   0  0  2  0  0  0  0  0  0  0  0  0
    1.8030    0.3815    1.2082 H   0  0  0  0  0  0  0  0  0  0  0  0
    1.1747    1.7302    2.7673 C   0  0  2  0  0  0  0  0  0  0  0  0
    1.1550    2.8039    2.9541 H   0  0  0  0  0  0  0  0  0  0  0  0
    2.0511    1.0488    3.8008 C   0  0  2  0  0  0  0  0  0  0  0  0
    2.1563   -0.0111    3.5696 H   0  0  0  0  0  0  0  0  0  0  0  0
    1.6435    1.2553    5.2638 C   0  0  0  0  0  0  0  0  0  0  0  0
    2.9668    0.9945    6.0338 C   0  0  0  0  0  0  0  0  0  0  0  0
    4.1163    1.2663    5.0315 C   0  0  1  0  0  0  0  0  0  0  0  0
    4.6708    0.3487    4.8349 H   0  0  0  0  0  0  0  0  0  0  0  0
    3.4338    1.7544    3.7581 C   0  0  1  0  0  0  0  0  0  0  0  0
    4.0960    1.3774    2.4476 C   0  0  0  0  0  0  0  0  0  0  0  0
    3.2347    1.9647    1.3150 C   0  0  0  0  0  0  0  0  0  0  0  0
    3.2425    3.2710    3.8230 C   0  0  0  0  0  0  0  0  0  0  0  0
    5.0524    2.3458    5.5785 C   0  0  2  0  0  0  0  0  0  0  0  0
    4.4994    3.2766    5.7041 H   0  0  0  0  0  0  0  0  0  0  0  0
    6.2054    2.5660    4.5971 C   0  0  0  0  0  0  0  0  0  0  0  0
    5.6118    1.8985    6.9304 C   0  0  0  0  0  0  0  0  0  0  0  0
    6.4480    3.0280    7.5353 C   0  0  0  0  0  0  0  0  0  0  0  0
    6.9990    2.5874    8.8670 C   0  0  0  0  0  0  0  0  0  0  0  0
    6.7486    1.4833    9.2890 O   0  0  0  0  0  0  0  0  0  0  0  0
    0.8684    3.6360    0.6124 C   0  0  0  0  0  0  0  0  0  0  0  0
   -1.5601   -2.0138    2.5716 H   0  0  0  0  0  0  0  0  0  0  0  0
   -1.9578   -0.7377    3.7470 H   0  0  0  0  0  0  0  0  0  0  0  0
   -2.2691   -0.4795    2.0136 H   0  0  0  0  0  0  0  0  0  0  0  0
    0.1688   -0.5483    1.5656 H   0  0  0  0  0  0  0  0  0  0  0  0
    0.4800   -0.8066    3.2990 H   0  0  0  0  0  0  0  0  0  0  0  0
   -1.1409    2.8943    1.8880 H   0  0  0  0  0  0  0  0  0  0  0  0
   -2.1044    1.4027    1.7448 H   0  0  0  0  0  0  0  0  0  0  0  0
    2.5814    1.6963   -1.1673 H   0  0  0  0  0  0  0  0  0  0  0  0
    1.1288    1.9040   -3.1093 H   0  0  0  0  0  0  0  0  0  0  0  0
   -2.2136    2.3224   -0.5619 H   0  0  0  0  0  0  0  0  0  0  0  0
    1.2969    2.2758    5.4272 H   0  0  0  0  0  0  0  0  0  0  0  0
    0.8788    0.5357    5.5563 H   0  0  0  0  0  0  0  0  0  0  0  0
    3.0039   -0.0404    6.3740 H   0  0  0  0  0  0  0  0  0  0  0  0
    3.0449    1.6708    6.8850 H   0  0  0  0  0  0  0  0  0  0  0  0
    5.1007    1.7979    2.4053 H   0  0  0  0  0  0  0  0  0  0  0  0
    4.1442    0.2923    2.3552 H   0  0  0  0  0  0  0  0  0  0  0  0
    3.6654    1.6795    0.3552 H   0  0  0  0  0  0  0  0  0  0  0  0
    3.2328    3.0518    1.3949 H   0  0  0  0  0  0  0  0  0  0  0  0
    2.7167    3.5319    4.7414 H   0  0  0  0  0  0  0  0  0  0  0  0
    4.2160    3.7609    3.8099 H   0  0  0  0  0  0  0  0  0  0  0  0
    2.6583    3.6005    2.9638 H   0  0  0  0  0  0  0  0  0  0  0  0
    5.8128    2.9501    3.6556 H   0  0  0  0  0  0  0  0  0  0  0  0
    6.9084    3.2849    5.0179 H   0  0  0  0  0  0  0  0  0  0  0  0
    6.7164    1.6199    4.4187 H   0  0  0  0  0  0  0  0  0  0  0  0
    4.7883    1.6562    7.6022 H   0  0  0  0  0  0  0  0  0  0  0  0
    6.2381    1.0173    6.7909 H   0  0  0  0  0  0  0  0  0  0  0  0
    7.2715    3.2702    6.8635 H   0  0  0  0  0  0  0  0  0  0  0  0
    5.8217    3.9091    7.6748 H   0  0  0  0  0  0  0  0  0  0  0  0
    0.4303    3.7933    1.5981 H   0  0  0  0  0  0  0  0  0  0  0  0
    1.8715    4.0619    0.5886 H   0  0  0  0  0  0  0  0  0  0  0  0
    0.2494    4.1216   -0.1420 H   0  0  0  0  0  0  0  0  0  0  0  0
    7.7680    3.4216    9.5843 O   0  5  0  0  0  0  0  0  0  0  0  0
  1  2  1  0  0  0  0
  1 36  1  0  0  0  0
  1 37  1  0  0  0  0
  1 38  1  0  0  0  0
  2  3  1  0  0  0  0
  2 39  1  0  0  0  0
  2 40  1  0  0  0  0
  3  4  1  0  0  0  0
  3 16  1  0  0  0  0
  3  5  1  0  0  0  0
  5  6  1  0  0  0  0
  5 41  1  0  0  0  0
  5 42  1  0  0  0  0
  6  7  1  0  0  0  0
  6 13  1  0  0  0  0
  6  8  1  0  0  0  0
  8  9  1  0  0  0  0
  8 14  1  0  0  0  0
  8 35  1  0  0  0  0
  9 10  2  0  0  0  0
  9 43  1  0  0  0  0
 10 11  1  0  0  0  0
 10 44  1  0  0  0  0
 11 12  2  0  0  0  0
 11 13  1  0  0  0  0
 13 45  1  0  0  0  0
 14 15  1  0  0  0  0
 14 26  1  0  0  0  0
 14 16  1  0  0  0  0
 16 17  1  0  0  0  0
 16 18  1  0  0  0  0
 18 19  1  0  0  0  0
 18 24  1  0  0  0  0
 18 20  1  0  0  0  0
 20 21  1  0  0  0  0
 20 46  1  0  0  0  0
 20 47  1  0  0  0  0
 21 22  1  0  0  0  0
 21 48  1  0  0  0  0
 21 49  1  0  0  0  0
 22 23  1  0  0  0  0
 22 24  1  0  0  0  0
 22 28  1  0  0  0  0
 24 25  1  0  0  0  0
 24 27  1  0  0  0  0
 25 26  1  0  0  0  0
 25 50  1  0  0  0  0
 25 51  1  0  0  0  0
 26 52  1  0  0  0  0
 26 53  1  0  0  0  0
 27 54  1  0  0  0  0
 27 55  1  0  0  0  0
 27 56  1  0  0  0  0
 28 29  1  0  0  0  0
 28 30  1  0  0  0  0
 28 31  1  0  0  0  0
 30 57  1  0  0  0  0
 30 58  1  0  0  0  0
 30 59  1  0  0  0  0
 31 32  1  0  0  0  0
 31 60  1  0  0  0  0
 31 61  1  0  0  0  0
 32 33  1  0  0  0  0
 32 62  1  0  0  0  0
 32 63  1  0  0  0  0
 33 34  2  0  0  0  0
 33 67  1  0  0  0  0
 35 64  1  0  0  0  0
 35 65  1  0  0  0  0
 35 66  1  0  0  0  0
M  CHG  1  67  -1
M  END
$$$$
ZINC03948760
  -OEChem-08230709463D

 63 66  0     0  0  0  0  0  0999 V2000
   -1.8098   -1.9317    3.1774 C   0  0  0  0  0  0  0  0  0  0  0  0
   -0.5394   -1.5336    2.4233 C   0  0  0  0  0  0  0  0  0  0  0  0
   -0.8208   -0.3772    1.5690 N   0  0  0  0  0  0  0  0  0  0  0  0
    0.1867    0.1673    0.7834 C   0  0  0  0  0  0  0  0  0  0  0  0
    1.4203   -0.4635    0.6946 C   0  0  0  0  0  0  0  0  0  0  0  0
    2.4242    0.0886   -0.0953 C   0  0  0  0  0  0  0  0  0  0  0  0
    2.1927    1.2742   -0.7976 C   0  0  0  0  0  0  0  0  0  0  0  0
    0.9821    1.9000   -0.7150 C   0  0  0  0  0  0  0  0  0  0  0  0
   -0.0371    1.3584    0.0741 C   0  0  0  0  0  0  0  0  0  0  0  0
   -1.3448    2.0327    0.1566 C   0  0  0  0  0  0  0  0  0  0  0  0
   -2.2683    1.4982    0.7381 O   0  0  0  0  0  0  0  0  0  0  0  0
    3.7425   -0.5824   -0.1915 C   0  0  0  0  0  0  0  0  0  0  0  0
    3.8103   -1.8747   -0.3253 N   0  0  0  0  0  0  0  0  0  0  0  0
    5.0863   -2.5791   -0.3976 C   0  0  0  0  0  0  0  0  0  0  0  0
    6.1248   -1.7626   -1.1649 C   0  0  0  0  0  0  0  0  0  0  0  0
    6.1705   -0.3613   -0.6158 C   0  0  0  0  0  0  0  0  0  0  0  0
    4.9881    0.2145   -0.1420 C   0  0  0  0  0  0  0  0  0  0  0  0
    5.0057    1.5008    0.3801 C   0  0  0  0  0  0  0  0  0  0  0  0
    6.1848    2.2297    0.4136 C   0  0  0  0  0  0  0  0  0  0  0  0
    7.3589    1.6452   -0.0690 C   0  0  0  0  0  0  0  0  0  0  0  0
    7.3444    0.3541   -0.5781 C   0  0  0  0  0  0  0  0  0  0  0  0
    8.5225    2.3458   -0.0400 O   0  0  0  0  0  0  0  0  0  0  0  0
    9.6866    1.6915   -0.5486 C   0  0  0  0  0  0  0  0  0  0  0  0
   10.8900    2.6294   -0.4340 C   0  0  0  0  0  0  0  0  0  0  0  0
    5.9702    3.4746    0.9360 O   0  0  0  0  0  0  0  0  0  0  0  0
    4.8011    3.3932    1.7835 C   0  0  0  0  0  0  0  0  0  0  0  0
    3.9285    2.3858    0.9841 C   0  0  0  0  0  0  0  0  0  0  0  0
    5.1582    2.8393    3.1643 C   0  0  0  0  0  0  0  0  0  0  0  0
    4.1082    4.7523    1.8995 C   0  0  0  0  0  0  0  0  0  0  0  0
    5.5985   -2.8358    1.0211 C   0  0  0  0  0  0  0  0  0  0  0  0
    4.8797   -3.9198   -1.1051 C   0  0  0  0  0  0  0  0  0  0  0  0
   -1.6004   -2.7921    3.8129 H   0  0  0  0  0  0  0  0  0  0  0  0
   -2.1430   -1.0970    3.7940 H   0  0  0  0  0  0  0  0  0  0  0  0
   -2.5909   -2.1897    2.4623 H   0  0  0  0  0  0  0  0  0  0  0  0
   -0.2062   -2.3683    1.8067 H   0  0  0  0  0  0  0  0  0  0  0  0
    0.2418   -1.2756    3.1384 H   0  0  0  0  0  0  0  0  0  0  0  0
   -1.7108    0.0082    1.5522 H   0  0  0  0  0  0  0  0  0  0  0  0
    1.6004   -1.3797    1.2373 H   0  0  0  0  0  0  0  0  0  0  0  0
    2.9757    1.6979   -1.4090 H   0  0  0  0  0  0  0  0  0  0  0  0
    0.8111    2.8159   -1.2613 H   0  0  0  0  0  0  0  0  0  0  0  0
    7.1047   -2.2274   -1.0560 H   0  0  0  0  0  0  0  0  0  0  0  0
    5.8536   -1.7301   -2.2201 H   0  0  0  0  0  0  0  0  0  0  0  0
    8.2577   -0.0901   -0.9455 H   0  0  0  0  0  0  0  0  0  0  0  0
    9.8755    0.7859    0.0279 H   0  0  0  0  0  0  0  0  0  0  0  0
    9.5283    1.4297   -1.5948 H   0  0  0  0  0  0  0  0  0  0  0  0
   11.0482    2.8911    0.6122 H   0  0  0  0  0  0  0  0  0  0  0  0
   11.7779    2.1302   -0.8220 H   0  0  0  0  0  0  0  0  0  0  0  0
   10.7011    3.5349   -1.0105 H   0  0  0  0  0  0  0  0  0  0  0  0
    3.2769    1.8165    1.6470 H   0  0  0  0  0  0  0  0  0  0  0  0
    3.3528    2.8917    0.2091 H   0  0  0  0  0  0  0  0  0  0  0  0
    5.8690    3.5071    3.6509 H   0  0  0  0  0  0  0  0  0  0  0  0
    4.2554    2.7653    3.7706 H   0  0  0  0  0  0  0  0  0  0  0  0
    5.6045    1.8509    3.0550 H   0  0  0  0  0  0  0  0  0  0  0  0
    3.8213    5.0998    0.9070 H   0  0  0  0  0  0  0  0  0  0  0  0
    3.2185    4.6546    2.5215 H   0  0  0  0  0  0  0  0  0  0  0  0
    4.7912    5.4708    2.3526 H   0  0  0  0  0  0  0  0  0  0  0  0
    4.8748   -3.4436    1.5642 H   0  0  0  0  0  0  0  0  0  0  0  0
    6.5519   -3.3620    0.9735 H   0  0  0  0  0  0  0  0  0  0  0  0
    5.7337   -1.8848    1.5362 H   0  0  0  0  0  0  0  0  0  0  0  0
    4.5004   -3.7447   -2.1118 H   0  0  0  0  0  0  0  0  0  0  0  0
    5.8299   -4.4508   -1.1621 H   0  0  0  0  0  0  0  0  0  0  0  0
    4.1616   -4.5191   -0.5454 H   0  0  0  0  0  0  0  0  0  0  0  0
   -1.5165    3.2420   -0.4128 O   0  5  0  0  0  0  0  0  0  0  0  0
  1  2  1  0  0  0  0
  1 32  1  0  0  0  0
  1 33  1  0  0  0  0
  1 34  1  0  0  0  0
  2  3  1  0  0  0  0
  2 35  1  0  0  0  0
  2 36  1  0  0  0  0
  3  4  1  0  0  0  0
  3 37  1  0  0  0  0
  4  9  2  0  0  0  0
  4  5  1  0  0  0  0
  5  6  2  0  0  0  0
  5 38  1  0  0  0  0
  6  7  1  0  0  0  0
  6 12  1  0  0  0  0
  7  8  2  0  0  0  0
  7 39  1  0  0  0  0
  8  9  1  0  0  0  0
  8 40  1  0  0  0  0
  9 10  1  0  0  0  0
 10 11  2  0  0  0  0
 10 63  1  0  0  0  0
 12 17  1  0  0  0  0
 12 13  2  0  0  0  0
 13 14  1  0  0  0  0
 14 15  1  0  0  0  0
 14 30  1  0  0  0  0
 14 31  1  0  0  0  0
 15 16  1  0  0  0  0
 15 41  1  0  0  0  0
 15 42  1  0  0  0  0
 16 21  2  0  0  0  0
 16 17  1  0  0  0  0
 17 18  2  0  0  0  0
 18 27  1  0  0  0  0
 18 19  1  0  0  0  0
 19 20  2  0  0  0  0
 19 25  1  0  0  0  0
 20 21  1  0  0  0  0
 20 22  1  0  0  0  0
 21 43  1  0  0  0  0
 22 23  1  0  0  0  0
 23 24  1  0  0  0  0
 23 44  1  0  0  0  0
 23 45  1  0  0  0  0
 24 46  1  0  0  0  0
 24 47  1  0  0  0  0
 24 48  1  0  0  0  0
 25 26  1  0  0  0  0
 26 27  1  0  0  0  0
 26 28  1  0  0  0  0
 26 29  1  0  0  0  0
 27 49  1  0  0  0  0
 27 50  1  0  0  0  0
 28 51  1  0  0  0  0
 28 52  1  0  0  0  0
 28 53  1  0  0  0  0
 29 54  1  0  0  0  0
 29 55  1  0  0  0  0
 29 56  1  0  0  0  0
 30 57  1  0  0  0  0
 30 58  1  0  0  0  0
 30 59  1  0  0  0  0
 31 60  1  0  0  0  0
 31 61  1  0  0  0  0
 31 62  1  0  0  0  0
M  CHG  1  63  -1
M  END
$$$$
ZINC03948766
  -OEChem-08230709463D

 64 67  0     0  0  0  0  0  0999 V2000
   -0.5893    2.1294   -1.1447 C   0  0  0  0  0  0  0  0  0  0  0  0
    0.1032    1.5052    0.0684 C   0  0  0  0  0  0  0  0  0  0  0  0
   -0.5325    1.9584    1.2653 O   0  0  0  0  0  0  0  0  0  0  0  0
   -0.0354    1.4945    2.4414 C   0  0  0  0  0  0  0  0  0  0  0  0
    1.0429    0.6208    2.4371 C   0  0  0  0  0  0  0  0  0  0  0  0
    1.5526    0.1454    3.6227 C   0  0  0  0  0  0  0  0  0  0  0  0
    0.9774    0.5390    4.8362 C   0  0  0  0  0  0  0  0  0  0  0  0
   -0.1028    1.4084    4.8391 C   0  0  0  0  0  0  0  0  0  0  0  0
   -0.6096    1.9048    3.6475 C   0  0  0  0  0  0  0  0  0  0  0  0
   -1.6475    2.7626    3.8829 O   0  0  0  0  0  0  0  0  0  0  0  0
   -2.2218    2.4087    5.1623 C   0  0  0  0  0  0  0  0  0  0  0  0
   -0.9475    2.0024    5.9536 C   0  0  0  0  0  0  0  0  0  0  0  0
   -3.1865    1.2290    5.0265 C   0  0  0  0  0  0  0  0  0  0  0  0
   -2.9131    3.6106    5.8092 C   0  0  0  0  0  0  0  0  0  0  0  0
    1.5488    0.0077    6.0935 C   0  0  0  0  0  0  0  0  0  0  0  0
    2.7503   -0.4931    6.0932 N   0  0  0  0  0  0  0  0  0  0  0  0
    3.5742   -0.5263    4.8893 C   0  0  0  0  0  0  0  0  0  0  0  0
    2.7265   -0.7973    3.6476 C   0  0  0  0  0  0  0  0  0  0  0  0
    4.2825    0.8203    4.7289 C   0  0  0  0  0  0  0  0  0  0  0  0
    4.6242   -1.6302    5.0304 C   0  0  0  0  0  0  0  0  0  0  0  0
    0.7582    0.0459    7.3456 C   0  0  0  0  0  0  0  0  0  0  0  0
    1.2337    0.7483    8.4528 C   0  0  0  0  0  0  0  0  0  0  0  0
    0.4906    0.7838    9.6149 C   0  0  0  0  0  0  0  0  0  0  0  0
   -0.7191    0.1163    9.6864 C   0  0  0  0  0  0  0  0  0  0  0  0
   -1.1937   -0.5861    8.5931 C   0  0  0  0  0  0  0  0  0  0  0  0
   -0.4621   -0.6251    7.4239 C   0  0  0  0  0  0  0  0  0  0  0  0
   -1.5227    0.1539   10.9607 C   0  0  0  0  0  0  0  0  0  0  0  0
   -0.7823    0.9905   12.0061 C   0  0  0  0  0  0  0  0  0  0  0  0
   -2.8908    0.7798   10.6825 C   0  0  0  0  0  0  0  0  0  0  0  0
   -1.7081   -1.2488   11.4793 C   0  0  0  0  0  0  0  0  0  0  0  0
   -1.2361   -2.1833   10.8761 O   0  0  0  0  0  0  0  0  0  0  0  0
   -1.6384    1.8337   -1.1562 H   0  0  0  0  0  0  0  0  0  0  0  0
   -0.5185    3.2154   -1.0846 H   0  0  0  0  0  0  0  0  0  0  0  0
   -0.1044    1.7836   -2.0577 H   0  0  0  0  0  0  0  0  0  0  0  0
    0.0324    0.4191    0.0083 H   0  0  0  0  0  0  0  0  0  0  0  0
    1.1523    1.8008    0.0799 H   0  0  0  0  0  0  0  0  0  0  0  0
    1.4832    0.3135    1.5000 H   0  0  0  0  0  0  0  0  0  0  0  0
   -1.1774    1.2561    6.7140 H   0  0  0  0  0  0  0  0  0  0  0  0
   -0.4622    2.8733    6.3941 H   0  0  0  0  0  0  0  0  0  0  0  0
   -3.4859    0.8885    6.0178 H   0  0  0  0  0  0  0  0  0  0  0  0
   -4.0685    1.5432    4.4685 H   0  0  0  0  0  0  0  0  0  0  0  0
   -2.6924    0.4147    4.4966 H   0  0  0  0  0  0  0  0  0  0  0  0
   -2.2281    4.4583    5.8254 H   0  0  0  0  0  0  0  0  0  0  0  0
   -3.8012    3.8720    5.2338 H   0  0  0  0  0  0  0  0  0  0  0  0
   -3.2024    3.3577    6.8292 H   0  0  0  0  0  0  0  0  0  0  0  0
    2.3659   -1.8256    3.6715 H   0  0  0  0  0  0  0  0  0  0  0  0
    3.3326   -0.6461    2.7543 H   0  0  0  0  0  0  0  0  0  0  0  0
    4.9125    1.0053    5.5990 H   0  0  0  0  0  0  0  0  0  0  0  0
    4.8998    0.8015    3.8308 H   0  0  0  0  0  0  0  0  0  0  0  0
    3.5399    1.6135    4.6429 H   0  0  0  0  0  0  0  0  0  0  0  0
    4.1261   -2.5910    5.1601 H   0  0  0  0  0  0  0  0  0  0  0  0
    5.2430   -1.6598    4.1335 H   0  0  0  0  0  0  0  0  0  0  0  0
    5.2515   -1.4261    5.8981 H   0  0  0  0  0  0  0  0  0  0  0  0
    2.1798    1.2664    8.3994 H   0  0  0  0  0  0  0  0  0  0  0  0
    0.8558    1.3308   10.4715 H   0  0  0  0  0  0  0  0  0  0  0  0
   -2.1387   -1.1053    8.6550 H   0  0  0  0  0  0  0  0  0  0  0  0
   -0.8333   -1.1743    6.5713 H   0  0  0  0  0  0  0  0  0  0  0  0
   -0.6482    2.0051   11.6310 H   0  0  0  0  0  0  0  0  0  0  0  0
   -1.3635    1.0177   12.9278 H   0  0  0  0  0  0  0  0  0  0  0  0
    0.1924    0.5446   12.2043 H   0  0  0  0  0  0  0  0  0  0  0  0
   -3.4184    0.1838    9.9378 H   0  0  0  0  0  0  0  0  0  0  0  0
   -3.4721    0.8070   11.6042 H   0  0  0  0  0  0  0  0  0  0  0  0
   -2.7568    1.7944   10.3074 H   0  0  0  0  0  0  0  0  0  0  0  0
   -2.3976   -1.4602   12.6114 O   0  5  0  0  0  0  0  0  0  0  0  0
  1  2  1  0  0  0  0
  1 32  1  0  0  0  0
  1 33  1  0  0  0  0
  1 34  1  0  0  0  0
  2  3  1  0  0  0  0
  2 35  1  0  0  0  0
  2 36  1  0  0  0  0
  3  4  1  0  0  0  0
  4  9  2  0  0  0  0
  4  5  1  0  0  0  0
  5  6  2  0  0  0  0
  5 37  1  0  0  0  0
  6 18  1  0  0  0  0
  6  7  1  0  0  0  0
  7  8  2  0  0  0  0
  7 15  1  0  0  0  0
  8 12  1  0  0  0  0
  8  9  1  0  0  0  0
  9 10  1  0  0  0  0
 10 11  1  0  0  0  0
 11 12  1  0  0  0  0
 11 13  1  0  0  0  0
 11 14  1  0  0  0  0
 12 38  1  0  0  0  0
 12 39  1  0  0  0  0
 13 40  1  0  0  0  0
 13 41  1  0  0  0  0
 13 42  1  0  0  0  0
 14 43  1  0  0  0  0
 14 44  1  0  0  0  0
 14 45  1  0  0  0  0
 15 16  2  0  0  0  0
 15 21  1  0  0  0  0
 16 17  1  0  0  0  0
 17 18  1  0  0  0  0
 17 19  1  0  0  0  0
 17 20  1  0  0  0  0
 18 46  1  0  0  0  0
 18 47  1  0  0  0  0
 19 48  1  0  0  0  0
 19 49  1  0  0  0  0
 19 50  1  0  0  0  0
 20 51  1  0  0  0  0
 20 52  1  0  0  0  0
 20 53  1  0  0  0  0
 21 26  2  0  0  0  0
 21 22  1  0  0  0  0
 22 23  2  0  0  0  0
 22 54  1  0  0  0  0
 23 24  1  0  0  0  0
 23 55  1  0  0  0  0
 24 25  2  0  0  0  0
 24 27  1  0  0  0  0
 25 26  1  0  0  0  0
 25 56  1  0  0  0  0
 26 57  1  0  0  0  0
 27 28  1  0  0  0  0
 27 29  1  0  0  0  0
 27 30  1  0  0  0  0
 28 58  1  0  0  0  0
 28 59  1  0  0  0  0
 28 60  1  0  0  0  0
 29 61  1  0  0  0  0
 29 62  1  0  0  0  0
 29 63  1  0  0  0  0
 30 31  2  0  0  0  0
 30 64  1  0  0  0  0
M  CHG  1  64  -1
M  END
$$$$
ZINC03949166
  -OEChem-08230709463D

 53 56  0     1  0  0  0  0  0999 V2000
   -0.3091    5.5918    0.2123 C   0  0  0  0  0  0  0  0  0  0  0  0
   -0.2584    4.1649    0.1545 O   0  0  0  0  0  0  0  0  0  0  0  0
    0.9425    3.6013   -0.1447 C   0  0  0  0  0  0  0  0  0  0  0  0
    2.0489    4.4040   -0.3718 C   0  0  0  0  0  0  0  0  0  0  0  0
    3.2677    3.8297   -0.6814 C   0  0  0  0  0  0  0  0  0  0  0  0
    3.3874    2.4546   -0.7596 C   0  0  0  0  0  0  0  0  0  0  0  0
    2.2889    1.6478   -0.5286 C   0  0  0  0  0  0  0  0  0  0  0  0
    1.0643    2.2170   -0.2178 C   0  0  0  0  0  0  0  0  0  0  0  0
   -0.0173    1.4248    0.0099 O   0  0  0  0  0  0  0  0  0  0  0  0
    0.2052    0.0134    0.0306 C   0  0  0  0  0  0  0  0  0  0  0  0
    0.1110   -0.5575   -1.3994 C   0  0  0  0  0  0  0  0  0  0  0  0
   -0.5762   -1.9340   -1.2136 C   0  0  0  0  0  0  0  0  0  0  0  0
   -1.6166   -1.6501   -0.1018 C   0  0  0  0  0  0  0  0  0  0  0  0
   -0.8924   -0.6812    0.8556 C   0  0  0  0  0  0  0  0  0  0  0  0
    4.7185    1.8338   -1.0970 C   0  0  0  0  0  0  0  0  0  0  0  0
    5.2752    1.0392    0.1100 C   0  0  0  0  0  0  0  0  0  0  0  0
    6.7977    0.9988   -0.1309 C   0  0  2  0  0  0  0  0  0  0  0  0
    7.1130    0.0592   -0.5846 H   0  0  0  0  0  0  0  0  0  0  0  0
    7.5222    1.2479    1.2073 C   0  0  0  0  0  0  0  0  0  0  0  0
    8.6853    2.2021    0.8402 C   0  0  0  0  0  0  0  0  0  0  0  0
    8.0417    3.1348   -0.2153 C   0  0  0  0  0  0  0  0  0  0  0  0
    7.1296    2.2041   -1.0396 C   0  0  2  0  0  0  0  0  0  0  0  0
    7.6113    1.8954   -1.9674 H   0  0  0  0  0  0  0  0  0  0  0  0
    5.7947    2.9262   -1.3125 C   0  0  0  0  0  0  0  0  0  0  0  0
    9.1362    2.9887    2.0439 C   0  0  0  0  0  0  0  0  0  0  0  0
    8.9706    4.1850    2.0806 O   0  0  0  0  0  0  0  0  0  0  0  0
    4.6040    0.9726   -2.2853 C   0  0  0  0  0  0  0  0  0  0  0  0
    4.5156    0.3080   -3.2024 N   0  0  0  0  0  0  0  0  0  0  0  0
    0.3807    5.9492    0.9769 H   0  0  0  0  0  0  0  0  0  0  0  0
   -0.0246    6.0050   -0.7554 H   0  0  0  0  0  0  0  0  0  0  0  0
   -1.3219    5.9097    0.4596 H   0  0  0  0  0  0  0  0  0  0  0  0
    1.9581    5.4785   -0.3113 H   0  0  0  0  0  0  0  0  0  0  0  0
    4.1281    4.4567   -0.8629 H   0  0  0  0  0  0  0  0  0  0  0  0
    2.3850    0.5739   -0.5906 H   0  0  0  0  0  0  0  0  0  0  0  0
    1.1852   -0.2036    0.4555 H   0  0  0  0  0  0  0  0  0  0  0  0
   -0.4979    0.0907   -2.0296 H   0  0  0  0  0  0  0  0  0  0  0  0
    1.1059   -0.6816   -1.8269 H   0  0  0  0  0  0  0  0  0  0  0  0
    0.1442   -2.6836   -0.8862 H   0  0  0  0  0  0  0  0  0  0  0  0
   -1.0696   -2.2500   -2.1327 H   0  0  0  0  0  0  0  0  0  0  0  0
   -1.8819   -2.5715    0.4167 H   0  0  0  0  0  0  0  0  0  0  0  0
   -2.5049   -1.1784   -0.5220 H   0  0  0  0  0  0  0  0  0  0  0  0
   -0.4450   -1.2360    1.6803 H   0  0  0  0  0  0  0  0  0  0  0  0
   -1.5944    0.0584    1.2408 H   0  0  0  0  0  0  0  0  0  0  0  0
    5.0505    1.5561    1.0430 H   0  0  0  0  0  0  0  0  0  0  0  0
    4.8645    0.0297    0.1239 H   0  0  0  0  0  0  0  0  0  0  0  0
    7.9095    0.3125    1.6110 H   0  0  0  0  0  0  0  0  0  0  0  0
    6.8514    1.7224    1.9236 H   0  0  0  0  0  0  0  0  0  0  0  0
    9.5185    1.6475    0.4087 H   0  0  0  0  0  0  0  0  0  0  0  0
    8.8085    3.5778   -0.8508 H   0  0  0  0  0  0  0  0  0  0  0  0
    7.4528    3.9123    0.2715 H   0  0  0  0  0  0  0  0  0  0  0  0
    5.7635    3.2951   -2.3377 H   0  0  0  0  0  0  0  0  0  0  0  0
    5.6518    3.7462   -0.6088 H   0  0  0  0  0  0  0  0  0  0  0  0
    9.7219    2.3603    3.0754 O   0  5  0  0  0  0  0  0  0  0  0  0
  1  2  1  0  0  0  0
  1 29  1  0  0  0  0
  1 30  1  0  0  0  0
  1 31  1  0  0  0  0
  2  3  1  0  0  0  0
  3  8  2  0  0  0  0
  3  4  1  0  0  0  0
  4  5  2  0  0  0  0
  4 32  1  0  0  0  0
  5  6  1  0  0  0  0
  5 33  1  0  0  0  0
  6  7  2  0  0  0  0
  6 15  1  0  0  0  0
  7  8  1  0  0  0  0
  7 34  1  0  0  0  0
  8  9  1  0  0  0  0
  9 10  1  0  0  0  0
 10 14  1  0  0  0  0
 10 11  1  0  0  0  0
 10 35  1  0  0  0  0
 11 12  1  0  0  0  0
 11 36  1  0  0  0  0
 11 37  1  0  0  0  0
 12 13  1  0  0  0  0
 12 38  1  0  0  0  0
 12 39  1  0  0  0  0
 13 14  1  0  0  0  0
 13 40  1  0  0  0  0
 13 41  1  0  0  0  0
 14 42  1  0  0  0  0
 14 43  1  0  0  0  0
 15 24  1  0  0  0  0
 15 16  1  0  0  0  0
 15 27  1  0  0  0  0
 16 17  1  0  0  0  0
 16 44  1  0  0  0  0
 16 45  1  0  0  0  0
 17 18  1  0  0  0  0
 17 22  1  0  0  0  0
 17 19  1  0  0  0  0
 19 20  1  0  0  0  0
 19 46  1  0  0  0  0
 19 47  1  0  0  0  0
 20 21  1  0  0  0  0
 20 25  1  0  0  0  0
 20 48  1  0  0  0  0
 21 22  1  0  0  0  0
 21 49  1  0  0  0  0
 21 50  1  0  0  0  0
 22 23  1  0  0  0  0
 22 24  1  0  0  0  0
 24 51  1  0  0  0  0
 24 52  1  0  0  0  0
 25 26  2  0  0  0  0
 25 53  1  0  0  0  0
 27 28  3  0  0  0  0
M  CHG  1  53  -1
M  END
$$$$
ZINC03949848
  -OEChem-08230709463D

 64 65  0     1  0  0  0  0  0999 V2000
   -5.8563   -2.9697   10.8679 C   0  0  0  0  0  0  0  0  0  0  0  0
   -4.9227   -2.2546    9.8891 C   0  0  0  0  0  0  0  0  0  0  0  0
   -5.5293   -2.2933    8.4850 C   0  0  0  0  0  0  0  0  0  0  0  0
   -4.5958   -1.5782    7.5062 C   0  0  0  0  0  0  0  0  0  0  0  0
   -5.2024   -1.6170    6.1022 C   0  0  0  0  0  0  0  0  0  0  0  0
   -4.2689   -0.9018    5.1234 C   0  0  0  0  0  0  0  0  0  0  0  0
   -4.8755   -0.9406    3.7193 C   0  0  0  0  0  0  0  0  0  0  0  0
   -6.2353   -0.2395    3.7317 C   0  0  0  0  0  0  0  0  0  0  0  0
   -5.0557   -2.3955    3.2816 C   0  0  0  0  0  0  0  0  0  0  0  0
   -3.9560   -0.2362    2.7552 C   0  0  0  0  0  0  0  0  0  0  0  0
   -4.2969   -0.1439    1.4194 C   0  0  0  0  0  0  0  0  0  0  0  0
   -3.4521    0.5047    0.5297 C   0  0  0  0  0  0  0  0  0  0  0  0
   -2.2652    1.0601    0.9822 C   0  0  0  0  0  0  0  0  0  0  0  0
   -1.9226    0.9611    2.3219 C   0  0  0  0  0  0  0  0  0  0  0  0
   -2.7736    0.3166    3.2087 C   0  0  0  0  0  0  0  0  0  0  0  0
   -0.7570    1.4993    2.7674 O   0  0  0  0  0  0  0  0  0  0  0  0
   -1.3459    1.7650    0.0182 C   0  0  2  0  0  0  0  0  0  0  0  0
   -1.7785    1.7300   -0.9816 H   0  0  0  0  0  0  0  0  0  0  0  0
   -0.0126    1.0758    0.0080 C   0  0  0  0  0  0  0  0  0  0  0  0
    1.1400    1.7118    0.0004 C   0  0  0  0  0  0  0  0  0  0  0  0
    1.2681    3.2073    0.0158 C   0  0  0  0  0  0  0  0  0  0  0  0
   -0.0599    3.8537   -0.3838 C   0  0  0  0  0  0  0  0  0  0  0  0
   -1.1796    3.2239    0.4538 C   0  0  1  0  0  0  0  0  0  0  0  0
   -0.9147    3.2665    1.5103 H   0  0  0  0  0  0  0  0  0  0  0  0
   -2.4676    3.9705    0.2203 C   0  0  0  0  0  0  0  0  0  0  0  0
   -3.0784    4.5524    1.2225 C   0  0  0  0  0  0  0  0  0  0  0  0
   -3.0531    4.0477   -1.1662 C   0  0  0  0  0  0  0  0  0  0  0  0
    2.3723    0.9116   -0.0252 C   0  0  0  0  0  0  0  0  0  0  0  0
    2.3085   -0.3020   -0.0387 O   0  0  0  0  0  0  0  0  0  0  0  0
   -3.7877    0.5948   -0.7841 O   0  0  0  0  0  0  0  0  0  0  0  0
   -6.8251   -2.4703   10.8767 H   0  0  0  0  0  0  0  0  0  0  0  0
   -5.9847   -4.0062   10.5560 H   0  0  0  0  0  0  0  0  0  0  0  0
   -5.4241   -2.9421   11.8682 H   0  0  0  0  0  0  0  0  0  0  0  0
   -3.9539   -2.7540    9.8803 H   0  0  0  0  0  0  0  0  0  0  0  0
   -4.7943   -1.2181   10.2009 H   0  0  0  0  0  0  0  0  0  0  0  0
   -6.4981   -1.7939    8.4939 H   0  0  0  0  0  0  0  0  0  0  0  0
   -5.6577   -3.3298    8.1732 H   0  0  0  0  0  0  0  0  0  0  0  0
   -3.6270   -2.0776    7.4974 H   0  0  0  0  0  0  0  0  0  0  0  0
   -4.4674   -0.5417    7.8181 H   0  0  0  0  0  0  0  0  0  0  0  0
   -6.1712   -1.1175    6.1110 H   0  0  0  0  0  0  0  0  0  0  0  0
   -5.3308   -2.6535    5.7903 H   0  0  0  0  0  0  0  0  0  0  0  0
   -3.3001   -1.4013    5.1145 H   0  0  0  0  0  0  0  0  0  0  0  0
   -4.1404    0.1347    5.4352 H   0  0  0  0  0  0  0  0  0  0  0  0
   -6.6675   -0.2671    2.7314 H   0  0  0  0  0  0  0  0  0  0  0  0
   -6.9004   -0.7490    4.4290 H   0  0  0  0  0  0  0  0  0  0  0  0
   -6.1069    0.7970    4.0435 H   0  0  0  0  0  0  0  0  0  0  0  0
   -4.0869   -2.8950    3.2727 H   0  0  0  0  0  0  0  0  0  0  0  0
   -5.7208   -2.9050    3.9789 H   0  0  0  0  0  0  0  0  0  0  0  0
   -5.4878   -2.4231    2.2813 H   0  0  0  0  0  0  0  0  0  0  0  0
   -5.2218   -0.5764    1.0674 H   0  0  0  0  0  0  0  0  0  0  0  0
   -2.5093    0.2431    4.2533 H   0  0  0  0  0  0  0  0  0  0  0  0
   -0.8340    2.4182    3.0586 H   0  0  0  0  0  0  0  0  0  0  0  0
    0.0021   -0.0041    0.0020 H   0  0  0  0  0  0  0  0  0  0  0  0
    1.5429    3.5360    1.0181 H   0  0  0  0  0  0  0  0  0  0  0  0
    2.0438    3.5108   -0.6872 H   0  0  0  0  0  0  0  0  0  0  0  0
   -0.0177    4.9258   -0.1917 H   0  0  0  0  0  0  0  0  0  0  0  0
   -0.2499    3.6757   -1.4422 H   0  0  0  0  0  0  0  0  0  0  0  0
   -2.6588    4.4971    2.2161 H   0  0  0  0  0  0  0  0  0  0  0  0
   -4.0015    5.0875    1.0551 H   0  0  0  0  0  0  0  0  0  0  0  0
   -3.7257    3.2046   -1.3240 H   0  0  0  0  0  0  0  0  0  0  0  0
   -3.6073    4.9800   -1.2752 H   0  0  0  0  0  0  0  0  0  0  0  0
   -2.2498    4.0143   -1.9022 H   0  0  0  0  0  0  0  0  0  0  0  0
   -3.4675   -0.1414   -1.3232 H   0  0  0  0  0  0  0  0  0  0  0  0
    3.5733    1.5236   -0.0337 O   0  5  0  0  0  0  0  0  0  0  0  0
  1  2  1  0  0  0  0
  1 31  1  0  0  0  0
  1 32  1  0  0  0  0
  1 33  1  0  0  0  0
  2  3  1  0  0  0  0
  2 34  1  0  0  0  0
  2 35  1  0  0  0  0
  3  4  1  0  0  0  0
  3 36  1  0  0  0  0
  3 37  1  0  0  0  0
  4  5  1  0  0  0  0
  4 38  1  0  0  0  0
  4 39  1  0  0  0  0
  5  6  1  0  0  0  0
  5 40  1  0  0  0  0
  5 41  1  0  0  0  0
  6  7  1  0  0  0  0
  6 42  1  0  0  0  0
  6 43  1  0  0  0  0
  7  8  1  0  0  0  0
  7  9  1  0  0  0  0
  7 10  1  0  0  0  0
  8 44  1  0  0  0  0
  8 45  1  0  0  0  0
  8 46  1  0  0  0  0
  9 47  1  0  0  0  0
  9 48  1  0  0  0  0
  9 49  1  0  0  0  0
 10 15  2  0  0  0  0
 10 11  1  0  0  0  0
 11 12  2  0  0  0  0
 11 50  1  0  0  0  0
 12 13  1  0  0  0  0
 12 30  1  0  0  0  0
 13 14  2  0  0  0  0
 13 17  1  0  0  0  0
 14 15  1  0  0  0  0
 14 16  1  0  0  0  0
 15 51  1  0  0  0  0
 16 52  1  0  0  0  0
 17 18  1  0  0  0  0
 17 23  1  0  0  0  0
 17 19  1  0  0  0  0
 19 20  2  0  0  0  0
 19 53  1  0  0  0  0
 20 21  1  0  0  0  0
 20 28  1  0  0  0  0
 21 22  1  0  0  0  0
 21 54  1  0  0  0  0
 21 55  1  0  0  0  0
 22 23  1  0  0  0  0
 22 56  1  0  0  0  0
 22 57  1  0  0  0  0
 23 24  1  0  0  0  0
 23 25  1  0  0  0  0
 25 26  2  0  0  0  0
 25 27  1  0  0  0  0
 26 58  1  0  0  0  0
 26 59  1  0  0  0  0
 27 60  1  0  0  0  0
 27 61  1  0  0  0  0
 27 62  1  0  0  0  0
 28 29  2  0  0  0  0
 28 64  1  0  0  0  0
 30 63  1  0  0  0  0
M  CHG  1  64  -1
M  END
$$$$
ZINC03950525
  -OEChem-08230709463D

 67 69  0     1  0  0  0  0  0999 V2000
    1.8976   -3.8325    1.3417 C   0  0  0  0  0  0  0  0  0  0  0  0
    1.9274   -3.2777    2.7453 C   0  0  0  0  0  0  0  0  0  0  0  0
    1.7508   -1.9997    2.8796 C   0  0  0  0  0  0  0  0  0  0  0  0
    1.7523   -1.3241    4.2289 C   0  0  2  0  0  0  0  0  0  0  0  0
    2.3341    0.0813    4.1367 C   0  0  0  0  0  0  0  0  0  0  0  0
    2.4213    0.6939    5.5369 C   0  0  0  0  0  0  0  0  0  0  0  0
    3.3382   -0.1420    6.4192 C   0  0  0  0  0  0  0  0  0  0  0  0
    2.8603   -1.5912    6.5308 C   0  0  0  0  0  0  0  0  0  0  0  0
    2.5759   -2.1866    5.1715 C   0  0  1  0  0  0  0  0  0  0  0  0
    3.5719   -2.3163    4.6758 H   0  0  0  0  0  0  0  0  0  0  0  0
    1.9692   -3.5877    5.2344 C   0  0  0  0  0  0  0  0  0  0  0  0
    2.1570   -4.2475    3.8630 C   0  0  0  0  0  0  0  0  0  0  0  0
    1.6622   -1.6782    7.4757 C   0  0  0  0  0  0  0  0  0  0  0  0
    4.0160   -2.3910    7.1795 C   0  0  0  0  0  0  0  0  0  0  0  0
    0.2901   -1.2241    4.6651 C   0  0  0  0  0  0  0  0  0  0  0  0
    1.5295   -1.1676    1.6468 C   0  0  0  0  0  0  0  0  0  0  0  0
    0.0279   -1.0289    1.3879 C   0  0  0  0  0  0  0  0  0  0  0  0
   -0.1924   -0.3029    0.0859 C   0  0  0  0  0  0  0  0  0  0  0  0
   -0.3821   -0.9815   -1.0185 C   0  0  0  0  0  0  0  0  0  0  0  0
   -0.4677   -0.2619   -2.3398 C   0  0  0  0  0  0  0  0  0  0  0  0
    0.5297   -0.8557   -3.3008 C   0  0  0  0  0  0  0  0  0  0  0  0
    0.1137   -1.7612   -4.2512 C   0  0  0  0  0  0  0  0  0  0  0  0
    1.0396   -2.3110   -5.1423 C   0  0  0  0  0  0  0  0  0  0  0  0
    2.3850   -1.9387   -5.0645 C   0  0  0  0  0  0  0  0  0  0  0  0
    2.7924   -1.0329   -4.1114 C   0  0  0  0  0  0  0  0  0  0  0  0
    1.8672   -0.4844   -3.2303 C   0  0  0  0  0  0  0  0  0  0  0  0
    2.2720    0.4125   -2.2959 O   0  0  0  0  0  0  0  0  0  0  0  0
    0.5985   -3.2807   -6.1620 C   0  0  0  0  0  0  0  0  0  0  0  0
   -0.5712   -3.6028   -6.2284 O   0  0  0  0  0  0  0  0  0  0  0  0
   -0.1944    1.2037    0.0542 C   0  0  0  0  0  0  0  0  0  0  0  0
    2.9041   -3.8175    0.9236 H   0  0  0  0  0  0  0  0  0  0  0  0
    1.5288   -4.8580    1.3641 H   0  0  0  0  0  0  0  0  0  0  0  0
    1.2384   -3.2227    0.7239 H   0  0  0  0  0  0  0  0  0  0  0  0
    3.3313    0.0393    3.6964 H   0  0  0  0  0  0  0  0  0  0  0  0
    1.6906    0.7125    3.5200 H   0  0  0  0  0  0  0  0  0  0  0  0
    2.8420    1.7041    5.4484 H   0  0  0  0  0  0  0  0  0  0  0  0
    1.4353    0.7795    5.9829 H   0  0  0  0  0  0  0  0  0  0  0  0
    4.3492   -0.1315    6.0015 H   0  0  0  0  0  0  0  0  0  0  0  0
    3.3764    0.2983    7.4197 H   0  0  0  0  0  0  0  0  0  0  0  0
    0.9155   -3.5630    5.4900 H   0  0  0  0  0  0  0  0  0  0  0  0
    2.4940   -4.1916    5.9812 H   0  0  0  0  0  0  0  0  0  0  0  0
    1.4535   -5.0761    3.7691 H   0  0  0  0  0  0  0  0  0  0  0  0
    3.1736   -4.6385    3.7948 H   0  0  0  0  0  0  0  0  0  0  0  0
    1.3921   -2.7236    7.6247 H   0  0  0  0  0  0  0  0  0  0  0  0
    1.9223   -1.2299    8.4345 H   0  0  0  0  0  0  0  0  0  0  0  0
    0.8176   -1.1431    7.0416 H   0  0  0  0  0  0  0  0  0  0  0  0
    4.9027   -2.3242    6.5491 H   0  0  0  0  0  0  0  0  0  0  0  0
    4.2374   -1.9767    8.1630 H   0  0  0  0  0  0  0  0  0  0  0  0
    3.7217   -3.4354    7.2830 H   0  0  0  0  0  0  0  0  0  0  0  0
   -0.0942   -2.2213    4.8793 H   0  0  0  0  0  0  0  0  0  0  0  0
    0.2196   -0.6073    5.5610 H   0  0  0  0  0  0  0  0  0  0  0  0
   -0.2974   -0.7722    3.8658 H   0  0  0  0  0  0  0  0  0  0  0  0
    2.0023   -1.6515    0.7922 H   0  0  0  0  0  0  0  0  0  0  0  0
    1.9659   -0.1795    1.7923 H   0  0  0  0  0  0  0  0  0  0  0  0
   -0.4303   -0.4650    2.2004 H   0  0  0  0  0  0  0  0  0  0  0  0
   -0.4243   -2.0192    1.3328 H   0  0  0  0  0  0  0  0  0  0  0  0
   -0.4772   -2.0567   -0.9820 H   0  0  0  0  0  0  0  0  0  0  0  0
   -1.4730   -0.3689   -2.7473 H   0  0  0  0  0  0  0  0  0  0  0  0
   -0.2458    0.7951   -2.1929 H   0  0  0  0  0  0  0  0  0  0  0  0
   -0.9265   -2.0459   -4.3081 H   0  0  0  0  0  0  0  0  0  0  0  0
    3.1036   -2.3615   -5.7509 H   0  0  0  0  0  0  0  0  0  0  0  0
    3.8315   -0.7447   -4.0506 H   0  0  0  0  0  0  0  0  0  0  0  0
    2.5427    0.0126   -1.4581 H   0  0  0  0  0  0  0  0  0  0  0  0
    0.7967    1.5626   -0.2235 H   0  0  0  0  0  0  0  0  0  0  0  0
   -0.9246    1.5508   -0.6769 H   0  0  0  0  0  0  0  0  0  0  0  0
   -0.4567    1.5875    1.0401 H   0  0  0  0  0  0  0  0  0  0  0  0
    1.4927   -3.8096   -7.0202 O   0  5  0  0  0  0  0  0  0  0  0  0
  1  2  1  0  0  0  0
  1 31  1  0  0  0  0
  1 32  1  0  0  0  0
  1 33  1  0  0  0  0
  2 12  1  0  0  0  0
  2  3  2  0  0  0  0
  3  4  1  0  0  0  0
  3 16  1  0  0  0  0
  4  9  1  0  0  0  0
  4  5  1  0  0  0  0
  4 15  1  0  0  0  0
  5  6  1  0  0  0  0
  5 34  1  0  0  0  0
  5 35  1  0  0  0  0
  6  7  1  0  0  0  0
  6 36  1  0  0  0  0
  6 37  1  0  0  0  0
  7  8  1  0  0  0  0
  7 38  1  0  0  0  0
  7 39  1  0  0  0  0
  8  9  1  0  0  0  0
  8 13  1  0  0  0  0
  8 14  1  0  0  0  0
  9 10  1  0  0  0  0
  9 11  1  0  0  0  0
 11 12  1  0  0  0  0
 11 40  1  0  0  0  0
 11 41  1  0  0  0  0
 12 42  1  0  0  0  0
 12 43  1  0  0  0  0
 13 44  1  0  0  0  0
 13 45  1  0  0  0  0
 13 46  1  0  0  0  0
 14 47  1  0  0  0  0
 14 48  1  0  0  0  0
 14 49  1  0  0  0  0
 15 50  1  0  0  0  0
 15 51  1  0  0  0  0
 15 52  1  0  0  0  0
 16 17  1  0  0  0  0
 16 53  1  0  0  0  0
 16 54  1  0  0  0  0
 17 18  1  0  0  0  0
 17 55  1  0  0  0  0
 17 56  1  0  0  0  0
 18 19  2  0  0  0  0
 18 30  1  0  0  0  0
 19 20  1  0  0  0  0
 19 57  1  0  0  0  0
 20 21  1  0  0  0  0
 20 58  1  0  0  0  0
 20 59  1  0  0  0  0
 21 26  2  0  0  0  0
 21 22  1  0  0  0  0
 22 23  2  0  0  0  0
 22 60  1  0  0  0  0
 23 24  1  0  0  0  0
 23 28  1  0  0  0  0
 24 25  2  0  0  0  0
 24 61  1  0  0  0  0
 25 26  1  0  0  0  0
 25 62  1  0  0  0  0
 26 27  1  0  0  0  0
 27 63  1  0  0  0  0
 28 29  2  0  0  0  0
 28 67  1  0  0  0  0
 30 64  1  0  0  0  0
 30 65  1  0  0  0  0
 30 66  1  0  0  0  0
M  CHG  1  67  -1
M  END
$$$$
ZINC03952051
  -OEChem-08230709463D

 57 63  0     0  0  0  0  0  0999 V2000
   -0.0087    3.8799    0.0225 C   0  0  0  0  0  0  0  0  0  0  0  0
    1.1626    3.1928    0.0081 C   0  0  0  0  0  0  0  0  0  0  0  0
    1.1731    1.7886    0.0005 C   0  0  0  0  0  0  0  0  0  0  0  0
   -0.0126    1.0758    0.0080 C   0  0  0  0  0  0  0  0  0  0  0  0
   -1.2334    1.7652    0.0174 C   0  0  0  0  0  0  0  0  0  0  0  0
   -1.2324    3.1844    0.0300 C   0  0  0  0  0  0  0  0  0  0  0  0
   -2.4529    3.8745    0.0450 C   0  0  0  0  0  0  0  0  0  0  0  0
   -3.6408    3.1603    0.0520 C   0  0  0  0  0  0  0  0  0  0  0  0
   -3.6284    1.7531    0.0442 C   0  0  0  0  0  0  0  0  0  0  0  0
   -2.4572    1.0685    0.0298 C   0  0  0  0  0  0  0  0  0  0  0  0
   -4.9286    3.8812    0.0682 C   0  0  0  0  0  0  0  0  0  0  0  0
   -4.9447    5.0960    0.0754 O   0  0  0  0  0  0  0  0  0  0  0  0
    2.4663    1.0635   -0.0153 C   0  0  0  0  0  0  0  0  0  0  0  0
    3.6655    1.7746   -0.0286 C   0  0  0  0  0  0  0  0  0  0  0  0
    4.8683    1.0990   -0.0367 C   0  0  0  0  0  0  0  0  0  0  0  0
    4.8893   -0.2878   -0.0445 C   0  0  0  0  0  0  0  0  0  0  0  0
    3.6931   -1.0038   -0.0370 C   0  0  0  0  0  0  0  0  0  0  0  0
    2.4853   -0.3303   -0.0224 C   0  0  0  0  0  0  0  0  0  0  0  0
    3.9835   -2.3379   -0.0469 O   0  0  0  0  0  0  0  0  0  0  0  0
    5.3558   -2.4292   -0.4731 C   0  0  0  0  0  0  0  0  0  0  0  0
    5.9272   -1.1744   -0.0587 O   0  0  0  0  0  0  0  0  0  0  0  0
    6.1630    1.8702   -0.0449 C   0  0  0  0  0  0  0  0  0  0  0  0
    6.9583    1.5183   -1.3037 C   0  0  0  0  0  0  0  0  0  0  0  0
    8.2728    2.3012   -1.3120 C   0  0  0  0  0  0  0  0  0  0  0  0
    7.9729    3.8015   -1.3010 C   0  0  0  0  0  0  0  0  0  0  0  0
    7.1777    4.1533   -0.0421 C   0  0  0  0  0  0  0  0  0  0  0  0
    5.8632    3.3705   -0.0338 C   0  0  0  0  0  0  0  0  0  0  0  0
    7.9968    3.7878    1.1974 C   0  0  0  0  0  0  0  0  0  0  0  0
    8.2967    2.2875    1.1863 C   0  0  0  0  0  0  0  0  0  0  0  0
    9.0919    1.9357   -0.0725 C   0  0  0  0  0  0  0  0  0  0  0  0
    6.9822    1.5046    1.1946 C   0  0  0  0  0  0  0  0  0  0  0  0
   -0.0013    4.9599    0.0286 H   0  0  0  0  0  0  0  0  0  0  0  0
    2.0977    3.7331    0.0027 H   0  0  0  0  0  0  0  0  0  0  0  0
    0.0021   -0.0041    0.0020 H   0  0  0  0  0  0  0  0  0  0  0  0
   -2.4673    4.9544    0.0507 H   0  0  0  0  0  0  0  0  0  0  0  0
   -4.5628    1.2115    0.0501 H   0  0  0  0  0  0  0  0  0  0  0  0
   -2.4635   -0.0115    0.0236 H   0  0  0  0  0  0  0  0  0  0  0  0
    3.6528    2.8545   -0.0276 H   0  0  0  0  0  0  0  0  0  0  0  0
    1.5579   -0.8837   -0.0170 H   0  0  0  0  0  0  0  0  0  0  0  0
    5.4140   -2.5375   -1.5561 H   0  0  0  0  0  0  0  0  0  0  0  0
    5.8564   -3.2605    0.0233 H   0  0  0  0  0  0  0  0  0  0  0  0
    7.1719    0.4494   -1.3116 H   0  0  0  0  0  0  0  0  0  0  0  0
    6.3747    1.7787   -2.1868 H   0  0  0  0  0  0  0  0  0  0  0  0
    8.8393    2.0505   -2.2089 H   0  0  0  0  0  0  0  0  0  0  0  0
    7.3893    4.0619   -2.1840 H   0  0  0  0  0  0  0  0  0  0  0  0
    8.9094    4.3592   -1.3069 H   0  0  0  0  0  0  0  0  0  0  0  0
    6.9641    5.2222   -0.0343 H   0  0  0  0  0  0  0  0  0  0  0  0
    5.2796    3.6309   -0.9168 H   0  0  0  0  0  0  0  0  0  0  0  0
    5.2966    3.6211    0.8630 H   0  0  0  0  0  0  0  0  0  0  0  0
    8.9333    4.3456    1.1914 H   0  0  0  0  0  0  0  0  0  0  0  0
    7.4303    4.0385    2.0942 H   0  0  0  0  0  0  0  0  0  0  0  0
    8.8802    2.0271    2.0693 H   0  0  0  0  0  0  0  0  0  0  0  0
    9.3055    0.8668   -0.0804 H   0  0  0  0  0  0  0  0  0  0  0  0
   10.0284    2.4934   -0.0785 H   0  0  0  0  0  0  0  0  0  0  0  0
    6.4156    1.7553    2.0914 H   0  0  0  0  0  0  0  0  0  0  0  0
    7.1958    0.4358    1.1867 H   0  0  0  0  0  0  0  0  0  0  0  0
   -6.0864    3.1921    0.0751 O   0  5  0  0  0  0  0  0  0  0  0  0
  1  6  2  0  0  0  0
  1  2  1  0  0  0  0
  1 32  1  0  0  0  0
  2  3  2  0  0  0  0
  2 33  1  0  0  0  0
  3  4  1  0  0  0  0
  3 13  1  0  0  0  0
  4  5  2  0  0  0  0
  4 34  1  0  0  0  0
  5 10  1  0  0  0  0
  5  6  1  0  0  0  0
  6  7  1  0  0  0  0
  7  8  2  0  0  0  0
  7 35  1  0  0  0  0
  8  9  1  0  0  0  0
  8 11  1  0  0  0  0
  9 10  2  0  0  0  0
  9 36  1  0  0  0  0
 10 37  1  0  0  0  0
 11 12  2  0  0  0  0
 11 57  1  0  0  0  0
 13 18  2  0  0  0  0
 13 14  1  0  0  0  0
 14 15  2  0  0  0  0
 14 38  1  0  0  0  0
 15 16  1  0  0  0  0
 15 22  1  0  0  0  0
 16 21  1  0  0  0  0
 16 17  2  0  0  0  0
 17 18  1  0  0  0  0
 17 19  1  0  0  0  0
 18 39  1  0  0  0  0
 19 20  1  0  0  0  0
 20 21  1  0  0  0  0
 20 40  1  0  0  0  0
 20 41  1  0  0  0  0
 22 27  1  0  0  0  0
 22 31  1  0  0  0  0
 22 23  1  0  0  0  0
 23 24  1  0  0  0  0
 23 42  1  0  0  0  0
 23 43  1  0  0  0  0
 24 30  1  0  0  0  0
 24 25  1  0  0  0  0
 24 44  1  0  0  0  0
 25 26  1  0  0  0  0
 25 45  1  0  0  0  0
 25 46  1  0  0  0  0
 26 27  1  0  0  0  0
 26 28  1  0  0  0  0
 26 47  1  0  0  0  0
 27 48  1  0  0  0  0
 27 49  1  0  0  0  0
 28 29  1  0  0  0  0
 28 50  1  0  0  0  0
 28 51  1  0  0  0  0
 29 30  1  0  0  0  0
 29 31  1  0  0  0  0
 29 52  1  0  0  0  0
 30 53  1  0  0  0  0
 30 54  1  0  0  0  0
 31 55  1  0  0  0  0
 31 56  1  0  0  0  0
M  CHG  1  57  -1
M  END
$$$$
ZINC03952606
  -OEChem-08230709463D

 51 52  0     0  0  0  0  0  0999 V2000
    3.7925    6.7583   -1.1855 C   0  0  0  0  0  0  0  0  0  0  0  0
    3.2417    6.6562    0.2383 C   0  0  0  0  0  0  0  0  0  0  0  0
    2.8756    8.0527    0.7449 C   0  0  0  0  0  0  0  0  0  0  0  0
    4.3041    6.0440    1.1534 C   0  0  0  0  0  0  0  0  0  0  0  0
    2.0134    5.7830    0.2403 C   0  0  0  0  0  0  0  0  0  0  0  0
    2.1509    4.4134    0.1242 C   0  0  0  0  0  0  0  0  0  0  0  0
    1.0034    3.6142    0.1269 C   0  0  0  0  0  0  0  0  0  0  0  0
   -0.2394    4.2447    0.2421 C   0  0  0  0  0  0  0  0  0  0  0  0
   -0.2841    5.6204    0.3593 C   0  0  0  0  0  0  0  0  0  0  0  0
    0.8224    6.3367    0.3524 N   0  0  0  0  0  0  0  0  0  0  0  0
   -1.6165    6.3123    0.4899 C   0  0  0  0  0  0  0  0  0  0  0  0
   -2.1613    6.1070    1.9048 C   0  0  0  0  0  0  0  0  0  0  0  0
   -1.4425    7.8087    0.2226 C   0  0  0  0  0  0  0  0  0  0  0  0
   -2.5985    5.7237   -0.5250 C   0  0  0  0  0  0  0  0  0  0  0  0
    1.1014    2.1414    0.0050 C   0  0  0  0  0  0  0  0  0  0  0  0
    2.1899    1.6114   -0.0993 O   0  0  0  0  0  0  0  0  0  0  0  0
   -0.0168    1.3890    0.0097 N   0  0  0  0  0  0  0  0  0  0  0  0
    0.0787   -0.0008   -0.0083 C   0  0  0  0  0  0  0  0  0  0  0  0
    1.0991   -0.6173   -0.7280 C   0  0  0  0  0  0  0  0  0  0  0  0
    1.2033   -1.9787   -0.7462 C   0  0  0  0  0  0  0  0  0  0  0  0
    0.2768   -2.7620   -0.0501 C   0  0  0  0  0  0  0  0  0  0  0  0
   -0.7543   -2.1453    0.6702 C   0  0  0  0  0  0  0  0  0  0  0  0
   -0.8485   -0.7683    0.6877 C   0  0  0  0  0  0  0  0  0  0  0  0
   -1.6527   -2.8952    1.3454 F   0  0  0  0  0  0  0  0  0  0  0  0
    0.3853   -4.2308   -0.0740 C   0  0  0  0  0  0  0  0  0  0  0  0
   -0.4204   -4.9095    0.5318 O   0  0  0  0  0  0  0  0  0  0  0  0
    3.0357    7.1944   -1.8374 H   0  0  0  0  0  0  0  0  0  0  0  0
    4.6809    7.3898   -1.1869 H   0  0  0  0  0  0  0  0  0  0  0  0
    4.0534    5.7634   -1.5463 H   0  0  0  0  0  0  0  0  0  0  0  0
    2.4832    7.9799    1.7592 H   0  0  0  0  0  0  0  0  0  0  0  0
    3.7640    8.6842    0.7434 H   0  0  0  0  0  0  0  0  0  0  0  0
    2.1187    8.4888    0.0929 H   0  0  0  0  0  0  0  0  0  0  0  0
    4.5649    5.0491    0.7926 H   0  0  0  0  0  0  0  0  0  0  0  0
    5.1925    6.6755    1.1520 H   0  0  0  0  0  0  0  0  0  0  0  0
    3.9117    5.9712    2.1678 H   0  0  0  0  0  0  0  0  0  0  0  0
    3.1299    3.9665    0.0331 H   0  0  0  0  0  0  0  0  0  0  0  0
   -1.1503    3.6645    0.2436 H   0  0  0  0  0  0  0  0  0  0  0  0
   -1.4617    6.5263    2.6279 H   0  0  0  0  0  0  0  0  0  0  0  0
   -3.1250    6.6074    1.9993 H   0  0  0  0  0  0  0  0  0  0  0  0
   -2.2852    5.0409    2.0953 H   0  0  0  0  0  0  0  0  0  0  0  0
   -1.0544    7.9550   -0.7854 H   0  0  0  0  0  0  0  0  0  0  0  0
   -2.4062    8.3091    0.3171 H   0  0  0  0  0  0  0  0  0  0  0  0
   -0.7429    8.2280    0.9457 H   0  0  0  0  0  0  0  0  0  0  0  0
   -2.7225    4.6577   -0.3346 H   0  0  0  0  0  0  0  0  0  0  0  0
   -3.5622    6.2242   -0.4306 H   0  0  0  0  0  0  0  0  0  0  0  0
   -2.2104    5.8700   -1.5331 H   0  0  0  0  0  0  0  0  0  0  0  0
   -0.8881    1.8152    0.0215 H   0  0  0  0  0  0  0  0  0  0  0  0
    1.8137   -0.0160   -1.2703 H   0  0  0  0  0  0  0  0  0  0  0  0
    1.9992   -2.4514   -1.3027 H   0  0  0  0  0  0  0  0  0  0  0  0
   -1.6416   -0.2876    1.2411 H   0  0  0  0  0  0  0  0  0  0  0  0
    1.3781   -4.8219   -0.7676 O   0  5  0  0  0  0  0  0  0  0  0  0
  1  2  1  0  0  0  0
  1 27  1  0  0  0  0
  1 28  1  0  0  0  0
  1 29  1  0  0  0  0
  2  3  1  0  0  0  0
  2  4  1  0  0  0  0
  2  5  1  0  0  0  0
  3 30  1  0  0  0  0
  3 31  1  0  0  0  0
  3 32  1  0  0  0  0
  4 33  1  0  0  0  0
  4 34  1  0  0  0  0
  4 35  1  0  0  0  0
  5 10  2  0  0  0  0
  5  6  1  0  0  0  0
  6  7  2  0  0  0  0
  6 36  1  0  0  0  0
  7  8  1  0  0  0  0
  7 15  1  0  0  0  0
  8  9  2  0  0  0  0
  8 37  1  0  0  0  0
  9 10  1  0  0  0  0
  9 11  1  0  0  0  0
 11 12  1  0  0  0  0
 11 13  1  0  0  0  0
 11 14  1  0  0  0  0
 12 38  1  0  0  0  0
 12 39  1  0  0  0  0
 12 40  1  0  0  0  0
 13 41  1  0  0  0  0
 13 42  1  0  0  0  0
 13 43  1  0  0  0  0
 14 44  1  0  0  0  0
 14 45  1  0  0  0  0
 14 46  1  0  0  0  0
 15 16  2  0  0  0  0
 15 17  1  0  0  0  0
 17 18  1  0  0  0  0
 17 47  1  0  0  0  0
 18 23  2  0  0  0  0
 18 19  1  0  0  0  0
 19 20  2  0  0  0  0
 19 48  1  0  0  0  0
 20 21  1  0  0  0  0
 20 49  1  0  0  0  0
 21 22  2  0  0  0  0
 21 25  1  0  0  0  0
 22 23  1  0  0  0  0
 22 24  1  0  0  0  0
 23 50  1  0  0  0  0
 25 26  2  0  0  0  0
 25 51  1  0  0  0  0
M  CHG  1  51  -1
M  END
$$$$
ZINC03952607
  -OEChem-08230709463D

 51 52  0     0  0  0  0  0  0999 V2000
    5.5612   -7.1217    0.7418 C   0  0  0  0  0  0  0  0  0  0  0  0
    4.8576   -7.0686   -0.6158 C   0  0  0  0  0  0  0  0  0  0  0  0
    4.5530   -8.4916   -1.0883 C   0  0  0  0  0  0  0  0  0  0  0  0
    5.7657   -6.3765   -1.6341 C   0  0  0  0  0  0  0  0  0  0  0  0
    3.5701   -6.2965   -0.4844 C   0  0  0  0  0  0  0  0  0  0  0  0
    3.6092   -4.9199   -0.3763 C   0  0  0  0  0  0  0  0  0  0  0  0
    2.4076   -4.2150   -0.2550 C   0  0  0  0  0  0  0  0  0  0  0  0
    1.2138   -4.9432   -0.2434 C   0  0  0  0  0  0  0  0  0  0  0  0
    1.2671   -6.3185   -0.3614 C   0  0  0  0  0  0  0  0  0  0  0  0
    2.4220   -6.9440   -0.4738 N   0  0  0  0  0  0  0  0  0  0  0  0
   -0.0121   -7.1151   -0.3555 C   0  0  0  0  0  0  0  0  0  0  0  0
   -0.7165   -6.9586   -1.7047 C   0  0  0  0  0  0  0  0  0  0  0  0
    0.3078   -8.5919   -0.1155 C   0  0  0  0  0  0  0  0  0  0  0  0
   -0.9264   -6.6036    0.7595 C   0  0  0  0  0  0  0  0  0  0  0  0
    2.3999   -2.7388   -0.1359 C   0  0  0  0  0  0  0  0  0  0  0  0
    3.4476   -2.1232   -0.1428 O   0  0  0  0  0  0  0  0  0  0  0  0
    1.2309   -2.0782   -0.0199 N   0  0  0  0  0  0  0  0  0  0  0  0
    1.2151   -0.6851   -0.0188 C   0  0  0  0  0  0  0  0  0  0  0  0
    2.1411    0.0203   -0.7815 C   0  0  0  0  0  0  0  0  0  0  0  0
    2.1281    1.3966   -0.7831 C   0  0  0  0  0  0  0  0  0  0  0  0
    1.1835    2.0860   -0.0168 C   0  0  0  0  0  0  0  0  0  0  0  0
    0.2550    1.3742    0.7486 C   0  0  0  0  0  0  0  0  0  0  0  0
    0.2737   -0.0021    0.7455 C   0  0  0  0  0  0  0  0  0  0  0  0
    1.1668    3.5605   -0.0156 C   0  0  0  0  0  0  0  0  0  0  0  0
    1.9747    4.1778   -0.6810 O   0  0  0  0  0  0  0  0  0  0  0  0
    4.9142   -7.6148    1.4673 H   0  0  0  0  0  0  0  0  0  0  0  0
    6.4924   -7.6802    0.6468 H   0  0  0  0  0  0  0  0  0  0  0  0
    5.7782   -6.1080    1.0785 H   0  0  0  0  0  0  0  0  0  0  0  0
    4.0517   -8.4538   -2.0555 H   0  0  0  0  0  0  0  0  0  0  0  0
    5.4842   -9.0501   -1.1833 H   0  0  0  0  0  0  0  0  0  0  0  0
    3.9060   -8.9847   -0.3628 H   0  0  0  0  0  0  0  0  0  0  0  0
    5.9827   -5.3628   -1.2975 H   0  0  0  0  0  0  0  0  0  0  0  0
    6.6970   -6.9350   -1.7291 H   0  0  0  0  0  0  0  0  0  0  0  0
    5.2645   -6.3387   -2.6013 H   0  0  0  0  0  0  0  0  0  0  0  0
    4.5536   -4.3960   -0.3857 H   0  0  0  0  0  0  0  0  0  0  0  0
    0.2643   -4.4376   -0.1474 H   0  0  0  0  0  0  0  0  0  0  0  0
   -0.0652   -7.3230   -2.4991 H   0  0  0  0  0  0  0  0  0  0  0  0
   -1.6418   -7.5348   -1.7005 H   0  0  0  0  0  0  0  0  0  0  0  0
   -0.9444   -5.9065   -1.8757 H   0  0  0  0  0  0  0  0  0  0  0  0
    0.8096   -8.7034    0.8456 H   0  0  0  0  0  0  0  0  0  0  0  0
   -0.6175   -9.1681   -0.1113 H   0  0  0  0  0  0  0  0  0  0  0  0
    0.9591   -8.9563   -0.9099 H   0  0  0  0  0  0  0  0  0  0  0  0
   -1.1543   -5.5515    0.5885 H   0  0  0  0  0  0  0  0  0  0  0  0
   -1.8516   -7.1797    0.7637 H   0  0  0  0  0  0  0  0  0  0  0  0
   -0.4246   -6.7151    1.7207 H   0  0  0  0  0  0  0  0  0  0  0  0
    0.4005   -2.5726    0.0627 H   0  0  0  0  0  0  0  0  0  0  0  0
    2.8706   -0.5128   -1.3732 H   0  0  0  0  0  0  0  0  0  0  0  0
    2.8496    1.9434   -1.3720 H   0  0  0  0  0  0  0  0  0  0  0  0
   -0.4763    1.9036    1.3414 H   0  0  0  0  0  0  0  0  0  0  0  0
   -0.4432   -0.5526    1.3365 H   0  0  0  0  0  0  0  0  0  0  0  0
    0.2557    4.2234    0.7235 O   0  5  0  0  0  0  0  0  0  0  0  0
  1  2  1  0  0  0  0
  1 26  1  0  0  0  0
  1 27  1  0  0  0  0
  1 28  1  0  0  0  0
  2  3  1  0  0  0  0
  2  4  1  0  0  0  0
  2  5  1  0  0  0  0
  3 29  1  0  0  0  0
  3 30  1  0  0  0  0
  3 31  1  0  0  0  0
  4 32  1  0  0  0  0
  4 33  1  0  0  0  0
  4 34  1  0  0  0  0
  5 10  2  0  0  0  0
  5  6  1  0  0  0  0
  6  7  2  0  0  0  0
  6 35  1  0  0  0  0
  7  8  1  0  0  0  0
  7 15  1  0  0  0  0
  8  9  2  0  0  0  0
  8 36  1  0  0  0  0
  9 10  1  0  0  0  0
  9 11  1  0  0  0  0
 11 12  1  0  0  0  0
 11 13  1  0  0  0  0
 11 14  1  0  0  0  0
 12 37  1  0  0  0  0
 12 38  1  0  0  0  0
 12 39  1  0  0  0  0
 13 40  1  0  0  0  0
 13 41  1  0  0  0  0
 13 42  1  0  0  0  0
 14 43  1  0  0  0  0
 14 44  1  0  0  0  0
 14 45  1  0  0  0  0
 15 16  2  0  0  0  0
 15 17  1  0  0  0  0
 17 18  1  0  0  0  0
 17 46  1  0  0  0  0
 18 23  2  0  0  0  0
 18 19  1  0  0  0  0
 19 20  2  0  0  0  0
 19 47  1  0  0  0  0
 20 21  1  0  0  0  0
 20 48  1  0  0  0  0
 21 22  2  0  0  0  0
 21 24  1  0  0  0  0
 22 23  1  0  0  0  0
 22 49  1  0  0  0  0
 23 50  1  0  0  0  0
 24 25  2  0  0  0  0
 24 51  1  0  0  0  0
M  CHG  1  51  -1
M  END
$$$$
ZINC03952976
  -OEChem-08230709463D

 55 58  0     1  0  0  0  0  0999 V2000
   -0.6535    7.6640   -0.0103 C   0  0  0  0  0  0  0  0  0  0  0  0
   -1.2315    7.0356    1.2593 C   0  0  0  0  0  0  0  0  0  0  0  0
   -1.1720    5.6116    1.1556 O   0  0  0  0  0  0  0  0  0  0  0  0
   -1.6492    4.8961    2.2073 C   0  0  0  0  0  0  0  0  0  0  0  0
   -2.1639    5.5558    3.3169 C   0  0  0  0  0  0  0  0  0  0  0  0
   -2.6462    4.8302    4.3796 C   0  0  0  0  0  0  0  0  0  0  0  0
   -2.6149    3.4324    4.3508 C   0  0  0  0  0  0  0  0  0  0  0  0
   -2.1075    2.7695    3.2368 C   0  0  0  0  0  0  0  0  0  0  0  0
   -1.6204    3.5033    2.1696 C   0  0  0  0  0  0  0  0  0  0  0  0
   -1.1178    2.8640    1.0796 O   0  0  0  0  0  0  0  0  0  0  0  0
   -1.1186    1.4353    1.1076 C   0  0  0  0  0  0  0  0  0  0  0  0
   -0.5201    0.8993   -0.1944 C   0  0  0  0  0  0  0  0  0  0  0  0
   -3.1301    2.6878    5.5222 C   0  0  0  0  0  0  0  0  0  0  0  0
   -3.9564    3.2792    6.3396 N   0  0  0  0  0  0  0  0  0  0  0  0
   -4.3837    4.6563    6.1209 C   0  0  2  0  0  0  0  0  0  0  0  0
   -5.1701    4.6549    5.3662 H   0  0  0  0  0  0  0  0  0  0  0  0
   -3.2315    5.5105    5.5938 C   0  0  1  0  0  0  0  0  0  0  0  0
   -3.6018    6.4982    5.3192 H   0  0  0  0  0  0  0  0  0  0  0  0
   -2.1425    5.6261    6.6638 C   0  0  0  0  0  0  0  0  0  0  0  0
   -2.7268    6.2507    7.9312 C   0  0  0  0  0  0  0  0  0  0  0  0
   -3.8520    5.3588    8.4617 C   0  0  0  0  0  0  0  0  0  0  0  0
   -4.9518    5.2552    7.4034 C   0  0  0  0  0  0  0  0  0  0  0  0
   -2.7113    1.2867    5.7632 C   0  0  0  0  0  0  0  0  0  0  0  0
   -3.5757    0.4017    6.4085 C   0  0  0  0  0  0  0  0  0  0  0  0
   -3.1894   -0.9021    6.6278 C   0  0  0  0  0  0  0  0  0  0  0  0
   -1.9275   -1.3351    6.2144 C   0  0  0  0  0  0  0  0  0  0  0  0
   -1.0606   -0.4471    5.5736 C   0  0  0  0  0  0  0  0  0  0  0  0
   -1.4505    0.8549    5.3499 C   0  0  0  0  0  0  0  0  0  0  0  0
   -1.5101   -2.7324    6.4543 C   0  0  0  0  0  0  0  0  0  0  0  0
   -0.4128   -3.1087    6.0943 O   0  0  0  0  0  0  0  0  0  0  0  0
    0.3838    7.3514   -0.1307 H   0  0  0  0  0  0  0  0  0  0  0  0
   -1.2336    7.3380   -0.8736 H   0  0  0  0  0  0  0  0  0  0  0  0
   -0.6988    8.7501    0.0688 H   0  0  0  0  0  0  0  0  0  0  0  0
   -2.2687    7.3481    1.3796 H   0  0  0  0  0  0  0  0  0  0  0  0
   -0.6513    7.3615    2.1226 H   0  0  0  0  0  0  0  0  0  0  0  0
   -2.1843    6.6352    3.3441 H   0  0  0  0  0  0  0  0  0  0  0  0
   -2.0905    1.6900    3.2074 H   0  0  0  0  0  0  0  0  0  0  0  0
   -2.1418    1.0746    1.2127 H   0  0  0  0  0  0  0  0  0  0  0  0
   -0.5225    1.0881    1.9515 H   0  0  0  0  0  0  0  0  0  0  0  0
   -0.5207   -0.1905   -0.1730 H   0  0  0  0  0  0  0  0  0  0  0  0
    0.5031    1.2600   -0.2995 H   0  0  0  0  0  0  0  0  0  0  0  0
   -1.1162    1.2465   -1.0383 H   0  0  0  0  0  0  0  0  0  0  0  0
   -1.3329    6.2535    6.2907 H   0  0  0  0  0  0  0  0  0  0  0  0
   -1.7552    4.6336    6.8942 H   0  0  0  0  0  0  0  0  0  0  0  0
   -3.1241    7.2390    7.7001 H   0  0  0  0  0  0  0  0  0  0  0  0
   -1.9459    6.3393    8.6866 H   0  0  0  0  0  0  0  0  0  0  0  0
   -4.2629    5.7938    9.3727 H   0  0  0  0  0  0  0  0  0  0  0  0
   -3.4594    4.3651    8.6775 H   0  0  0  0  0  0  0  0  0  0  0  0
   -5.3479    6.2489    7.1945 H   0  0  0  0  0  0  0  0  0  0  0  0
   -5.7529    4.6174    7.7770 H   0  0  0  0  0  0  0  0  0  0  0  0
   -4.5497    0.7379    6.7321 H   0  0  0  0  0  0  0  0  0  0  0  0
   -3.8603   -1.5882    7.1234 H   0  0  0  0  0  0  0  0  0  0  0  0
   -0.0848   -0.7813    5.2533 H   0  0  0  0  0  0  0  0  0  0  0  0
   -0.7804    1.5416    4.8541 H   0  0  0  0  0  0  0  0  0  0  0  0
   -2.3465   -3.5886    7.0724 O   0  5  0  0  0  0  0  0  0  0  0  0
  1  2  1  0  0  0  0
  1 31  1  0  0  0  0
  1 32  1  0  0  0  0
  1 33  1  0  0  0  0
  2  3  1  0  0  0  0
  2 34  1  0  0  0  0
  2 35  1  0  0  0  0
  3  4  1  0  0  0  0
  4  9  2  0  0  0  0
  4  5  1  0  0  0  0
  5  6  2  0  0  0  0
  5 36  1  0  0  0  0
  6 17  1  0  0  0  0
  6  7  1  0  0  0  0
  7  8  2  0  0  0  0
  7 13  1  0  0  0  0
  8  9  1  0  0  0  0
  8 37  1  0  0  0  0
  9 10  1  0  0  0  0
 10 11  1  0  0  0  0
 11 12  1  0  0  0  0
 11 38  1  0  0  0  0
 11 39  1  0  0  0  0
 12 40  1  0  0  0  0
 12 41  1  0  0  0  0
 12 42  1  0  0  0  0
 13 14  2  0  0  0  0
 13 23  1  0  0  0  0
 14 15  1  0  0  0  0
 15 16  1  0  0  0  0
 15 22  1  0  0  0  0
 15 17  1  0  0  0  0
 17 18  1  0  0  0  0
 17 19  1  0  0  0  0
 19 20  1  0  0  0  0
 19 43  1  0  0  0  0
 19 44  1  0  0  0  0
 20 21  1  0  0  0  0
 20 45  1  0  0  0  0
 20 46  1  0  0  0  0
 21 22  1  0  0  0  0
 21 47  1  0  0  0  0
 21 48  1  0  0  0  0
 22 49  1  0  0  0  0
 22 50  1  0  0  0  0
 23 28  2  0  0  0  0
 23 24  1  0  0  0  0
 24 25  2  0  0  0  0
 24 51  1  0  0  0  0
 25 26  1  0  0  0  0
 25 52  1  0  0  0  0
 26 27  2  0  0  0  0
 26 29  1  0  0  0  0
 27 28  1  0  0  0  0
 27 53  1  0  0  0  0
 28 54  1  0  0  0  0
 29 30  2  0  0  0  0
 29 55  1  0  0  0  0
M  CHG  1  55  -1
M  END
$$$$
ZINC03958997
  -OEChem-08230709463D

 54 56  0     0  0  0  0  0  0999 V2000
    0.3752   -2.8479   -5.9158 C   0  0  0  0  0  0  0  0  0  0  0  0
   -0.2579   -2.4221   -4.6162 C   0  0  0  0  0  0  0  0  0  0  0  0
   -1.2571   -3.1926   -4.0505 C   0  0  0  0  0  0  0  0  0  0  0  0
   -1.8396   -2.8048   -2.8597 C   0  0  0  0  0  0  0  0  0  0  0  0
   -1.4209   -1.6400   -2.2306 C   0  0  0  0  0  0  0  0  0  0  0  0
   -0.4213   -0.8655   -2.8041 C   0  0  0  0  0  0  0  0  0  0  0  0
    0.1612   -1.2615   -3.9921 C   0  0  0  0  0  0  0  0  0  0  0  0
   -2.0099   -1.2438   -1.0222 N   0  0  0  0  0  0  0  0  0  0  0  0
   -1.3725   -0.6620    0.0094 C   0  0  0  0  0  0  0  0  0  0  0  0
   -2.3109   -0.4304    0.9964 C   0  0  0  0  0  0  0  0  0  0  0  0
   -3.5511   -0.9068    0.5127 C   0  0  0  0  0  0  0  0  0  0  0  0
   -3.3599   -1.3897   -0.6840 N   0  0  0  0  0  0  0  0  0  0  0  0
   -2.0655    0.1951    2.3069 C   0  0  0  0  0  0  0  0  0  0  0  0
   -0.9693    0.6508    2.5669 O   0  0  0  0  0  0  0  0  0  0  0  0
    0.0937   -0.3198    0.0740 C   0  0  0  0  0  0  0  0  0  0  0  0
    0.2584    1.1966    0.1980 C   0  0  0  0  0  0  0  0  0  0  0  0
    1.7503    1.5434    0.2286 C   0  0  0  0  0  0  0  0  0  0  0  0
    2.3920    0.7766    1.3052 N   0  0  0  0  0  0  0  0  0  0  0  0
    2.2210   -0.6824    1.3322 C   0  0  0  0  0  0  0  0  0  0  0  0
    0.7239   -1.0042    1.2892 C   0  0  0  0  0  0  0  0  0  0  0  0
    3.1241    1.3998    2.2498 C   0  0  0  0  0  0  0  0  0  0  0  0
    3.6501    0.7544    3.1348 O   0  0  0  0  0  0  0  0  0  0  0  0
    3.2725    2.7375    2.2128 O   0  0  0  0  0  0  0  0  0  0  0  0
    4.0742    3.3410    3.2623 C   0  0  0  0  0  0  0  0  0  0  0  0
    5.4922    2.7686    3.2138 C   0  0  0  0  0  0  0  0  0  0  0  0
    4.1284    4.8560    3.0552 C   0  0  0  0  0  0  0  0  0  0  0  0
    3.4467    3.0345    4.6236 C   0  0  0  0  0  0  0  0  0  0  0  0
   -0.1791   -2.4154   -6.7488 H   0  0  0  0  0  0  0  0  0  0  0  0
    1.4080   -2.5011   -5.9476 H   0  0  0  0  0  0  0  0  0  0  0  0
    0.3544   -3.9351   -5.9911 H   0  0  0  0  0  0  0  0  0  0  0  0
   -1.5826   -4.0984   -4.5404 H   0  0  0  0  0  0  0  0  0  0  0  0
   -2.6202   -3.4068   -2.4185 H   0  0  0  0  0  0  0  0  0  0  0  0
   -0.0969    0.0436   -2.3196 H   0  0  0  0  0  0  0  0  0  0  0  0
    0.9421   -0.6620   -4.4363 H   0  0  0  0  0  0  0  0  0  0  0  0
   -4.4924   -0.8759    1.0414 H   0  0  0  0  0  0  0  0  0  0  0  0
    0.5875   -0.6657   -0.8341 H   0  0  0  0  0  0  0  0  0  0  0  0
   -0.2110    1.6846   -0.6561 H   0  0  0  0  0  0  0  0  0  0  0  0
   -0.2138    1.5398    1.1185 H   0  0  0  0  0  0  0  0  0  0  0  0
    2.2056    1.2830   -0.7269 H   0  0  0  0  0  0  0  0  0  0  0  0
    1.8737    2.6100    0.4160 H   0  0  0  0  0  0  0  0  0  0  0  0
    2.6550   -1.0843    2.2477 H   0  0  0  0  0  0  0  0  0  0  0  0
    2.7147   -1.1242    0.4667 H   0  0  0  0  0  0  0  0  0  0  0  0
    0.2473   -0.6403    2.1995 H   0  0  0  0  0  0  0  0  0  0  0  0
    0.5851   -2.0826    1.2121 H   0  0  0  0  0  0  0  0  0  0  0  0
    5.9393    2.9870    2.2440 H   0  0  0  0  0  0  0  0  0  0  0  0
    6.0941    3.2216    4.0016 H   0  0  0  0  0  0  0  0  0  0  0  0
    5.4536    1.6893    3.3613 H   0  0  0  0  0  0  0  0  0  0  0  0
    3.1181    5.2638    3.0897 H   0  0  0  0  0  0  0  0  0  0  0  0
    4.7302    5.3090    3.8430 H   0  0  0  0  0  0  0  0  0  0  0  0
    4.5754    5.0743    2.0854 H   0  0  0  0  0  0  0  0  0  0  0  0
    3.4081    1.9552    4.7711 H   0  0  0  0  0  0  0  0  0  0  0  0
    4.0485    3.4875    5.4114 H   0  0  0  0  0  0  0  0  0  0  0  0
    2.4365    3.4423    4.6581 H   0  0  0  0  0  0  0  0  0  0  0  0
   -3.0563    0.2620    3.2177 O   0  5  0  0  0  0  0  0  0  0  0  0
  1  2  1  0  0  0  0
  1 28  1  0  0  0  0
  1 29  1  0  0  0  0
  1 30  1  0  0  0  0
  2  7  2  0  0  0  0
  2  3  1  0  0  0  0
  3  4  2  0  0  0  0
  3 31  1  0  0  0  0
  4  5  1  0  0  0  0
  4 32  1  0  0  0  0
  5  6  2  0  0  0  0
  5  8  1  0  0  0  0
  6  7  1  0  0  0  0
  6 33  1  0  0  0  0
  7 34  1  0  0  0  0
  8 12  1  0  0  0  0
  8  9  1  0  0  0  0
  9 10  2  0  0  0  0
  9 15  1  0  0  0  0
 10 11  1  0  0  0  0
 10 13  1  0  0  0  0
 11 12  2  0  0  0  0
 11 35  1  0  0  0  0
 13 14  2  0  0  0  0
 13 54  1  0  0  0  0
 15 20  1  0  0  0  0
 15 16  1  0  0  0  0
 15 36  1  0  0  0  0
 16 17  1  0  0  0  0
 16 37  1  0  0  0  0
 16 38  1  0  0  0  0
 17 18  1  0  0  0  0
 17 39  1  0  0  0  0
 17 40  1  0  0  0  0
 18 19  1  0  0  0  0
 18 21  1  0  0  0  0
 19 20  1  0  0  0  0
 19 41  1  0  0  0  0
 19 42  1  0  0  0  0
 20 43  1  0  0  0  0
 20 44  1  0  0  0  0
 21 22  2  0  0  0  0
 21 23  1  0  0  0  0
 23 24  1  0  0  0  0
 24 25  1  0  0  0  0
 24 26  1  0  0  0  0
 24 27  1  0  0  0  0
 25 45  1  0  0  0  0
 25 46  1  0  0  0  0
 25 47  1  0  0  0  0
 26 48  1  0  0  0  0
 26 49  1  0  0  0  0
 26 50  1  0  0  0  0
 27 51  1  0  0  0  0
 27 52  1  0  0  0  0
 27 53  1  0  0  0  0
M  CHG  1  54  -1
M  END
$$$$
ZINC03961818
  -OEChem-08230709463D

 56 59  0     1  0  0  0  0  0999 V2000
    4.3741   10.1470   -4.4799 C   0  0  0  0  0  0  0  0  0  0  0  0
    4.1183    9.6433   -5.9017 C   0  0  0  0  0  0  0  0  0  0  0  0
    2.6622    9.9151   -6.2849 C   0  0  0  0  0  0  0  0  0  0  0  0
    2.4103    9.4189   -7.6854 C   0  0  0  0  0  0  0  0  0  0  0  0
    1.9799    8.1205   -7.8953 C   0  0  0  0  0  0  0  0  0  0  0  0
    1.7495    7.6528   -9.1869 C   0  0  0  0  0  0  0  0  0  0  0  0
    1.9353    8.4722  -10.2629 C   0  0  0  0  0  0  0  0  0  0  0  0
    2.3692    9.7864  -10.0700 C   0  0  0  0  0  0  0  0  0  0  0  0
    2.6086   10.2626   -8.7694 C   0  0  0  0  0  0  0  0  0  0  0  0
    3.0119   11.5442   -8.8844 O   0  0  0  0  0  0  0  0  0  0  0  0
    3.0368   11.9057  -10.2507 N   0  0  0  0  0  0  0  0  0  0  0  0
    2.6649   10.8973  -10.9781 C   0  0  0  0  0  0  0  0  0  0  0  0
    2.5570   10.8735  -12.4811 C   0  0  0  0  0  0  0  0  0  0  0  0
    1.7862    7.2946   -6.8345 O   0  0  0  0  0  0  0  0  0  0  0  0
    1.3414    5.9667   -7.1190 C   0  0  0  0  0  0  0  0  0  0  0  0
    1.1806    5.1913   -5.8099 C   0  0  0  0  0  0  0  0  0  0  0  0
    0.1370    5.7811   -5.0320 O   0  0  0  0  0  0  0  0  0  0  0  0
   -0.1359    5.2082   -3.8303 C   0  0  0  0  0  0  0  0  0  0  0  0
    0.5852    4.1006   -3.4078 C   0  0  0  0  0  0  0  0  0  0  0  0
    0.3041    3.5220   -2.1869 C   0  0  0  0  0  0  0  0  0  0  0  0
   -0.6929    4.0421   -1.3798 C   0  0  0  0  0  0  0  0  0  0  0  0
   -1.4153    5.1458   -1.7994 C   0  0  0  0  0  0  0  0  0  0  0  0
   -1.1357    5.7283   -3.0235 C   0  0  0  0  0  0  0  0  0  0  0  0
   -2.4405    5.5166   -0.7492 C   0  0  0  0  0  0  0  0  0  0  0  0
   -2.5668    4.2688    0.1503 C   0  0  0  0  0  0  0  0  0  0  0  0
   -1.1880    3.5965   -0.0203 C   0  0  1  0  0  0  0  0  0  0  0  0
   -0.5045    3.9320    0.7597 H   0  0  0  0  0  0  0  0  0  0  0  0
   -1.3313    2.0738    0.0196 C   0  0  0  0  0  0  0  0  0  0  0  0
   -1.7838    1.6476    1.3925 C   0  0  0  0  0  0  0  0  0  0  0  0
   -1.8714    2.4630    2.2799 O   0  0  0  0  0  0  0  0  0  0  0  0
    3.7129    9.6278   -3.7861 H   0  0  0  0  0  0  0  0  0  0  0  0
    5.4115    9.9533   -4.2069 H   0  0  0  0  0  0  0  0  0  0  0  0
    4.1802   11.2186   -4.4336 H   0  0  0  0  0  0  0  0  0  0  0  0
    4.3122    8.5716   -5.9480 H   0  0  0  0  0  0  0  0  0  0  0  0
    4.7796   10.1624   -6.5956 H   0  0  0  0  0  0  0  0  0  0  0  0
    2.4683   10.9867   -6.2387 H   0  0  0  0  0  0  0  0  0  0  0  0
    2.0010    9.3959   -5.5911 H   0  0  0  0  0  0  0  0  0  0  0  0
    1.4181    6.6361   -9.3379 H   0  0  0  0  0  0  0  0  0  0  0  0
    1.7511    8.1042  -11.2614 H   0  0  0  0  0  0  0  0  0  0  0  0
    3.5075   10.5542  -12.9085 H   0  0  0  0  0  0  0  0  0  0  0  0
    1.7728   10.1772  -12.7781 H   0  0  0  0  0  0  0  0  0  0  0  0
    2.3128   11.8720  -12.8436 H   0  0  0  0  0  0  0  0  0  0  0  0
    2.0748    5.4653   -7.7505 H   0  0  0  0  0  0  0  0  0  0  0  0
    0.3833    6.0076   -7.6371 H   0  0  0  0  0  0  0  0  0  0  0  0
    2.1151    5.2260   -5.2499 H   0  0  0  0  0  0  0  0  0  0  0  0
    0.9276    4.1543   -6.0305 H   0  0  0  0  0  0  0  0  0  0  0  0
    1.3648    3.6918   -4.0335 H   0  0  0  0  0  0  0  0  0  0  0  0
    0.8656    2.6599   -1.8584 H   0  0  0  0  0  0  0  0  0  0  0  0
   -1.6982    6.5901   -3.3510 H   0  0  0  0  0  0  0  0  0  0  0  0
   -3.3979    5.7429   -1.2185 H   0  0  0  0  0  0  0  0  0  0  0  0
   -2.0932    6.3696   -0.1662 H   0  0  0  0  0  0  0  0  0  0  0  0
   -3.3633    3.6146   -0.2042 H   0  0  0  0  0  0  0  0  0  0  0  0
   -2.7338    4.5519    1.1896 H   0  0  0  0  0  0  0  0  0  0  0  0
   -0.3698    1.6123   -0.2056 H   0  0  0  0  0  0  0  0  0  0  0  0
   -2.0676    1.7586   -0.7197 H   0  0  0  0  0  0  0  0  0  0  0  0
   -2.0841    0.3613    1.6309 O   0  5  0  0  0  0  0  0  0  0  0  0
  1  2  1  0  0  0  0
  1 31  1  0  0  0  0
  1 32  1  0  0  0  0
  1 33  1  0  0  0  0
  2  3  1  0  0  0  0
  2 34  1  0  0  0  0
  2 35  1  0  0  0  0
  3  4  1  0  0  0  0
  3 36  1  0  0  0  0
  3 37  1  0  0  0  0
  4  9  2  0  0  0  0
  4  5  1  0  0  0  0
  5  6  2  0  0  0  0
  5 14  1  0  0  0  0
  6  7  1  0  0  0  0
  6 38  1  0  0  0  0
  7  8  2  0  0  0  0
  7 39  1  0  0  0  0
  8 12  1  0  0  0  0
  8  9  1  0  0  0  0
  9 10  1  0  0  0  0
 10 11  1  0  0  0  0
 11 12  2  0  0  0  0
 12 13  1  0  0  0  0
 13 40  1  0  0  0  0
 13 41  1  0  0  0  0
 13 42  1  0  0  0  0
 14 15  1  0  0  0  0
 15 16  1  0  0  0  0
 15 43  1  0  0  0  0
 15 44  1  0  0  0  0
 16 17  1  0  0  0  0
 16 45  1  0  0  0  0
 16 46  1  0  0  0  0
 17 18  1  0  0  0  0
 18 23  2  0  0  0  0
 18 19  1  0  0  0  0
 19 20  2  0  0  0  0
 19 47  1  0  0  0  0
 20 21  1  0  0  0  0
 20 48  1  0  0  0  0
 21 26  1  0  0  0  0
 21 22  2  0  0  0  0
 22 23  1  0  0  0  0
 22 24  1  0  0  0  0
 23 49  1  0  0  0  0
 24 25  1  0  0  0  0
 24 50  1  0  0  0  0
 24 51  1  0  0  0  0
 25 26  1  0  0  0  0
 25 52  1  0  0  0  0
 25 53  1  0  0  0  0
 26 27  1  0  0  0  0
 26 28  1  0  0  0  0
 28 29  1  0  0  0  0
 28 54  1  0  0  0  0
 28 55  1  0  0  0  0
 29 30  2  0  0  0  0
 29 56  1  0  0  0  0
M  CHG  1  56  -1
M  END
$$$$
ZINC03962026
  -OEChem-08230709463D

 51 53  0     1  0  0  0  0  0999 V2000
   -0.6410    3.1050    1.3386 C   0  0  0  0  0  0  0  0  0  0  0  0
   -0.7288    1.5792    1.2668 C   0  0  1  0  0  0  0  0  0  0  0  0
   -1.7755    1.2768    1.2315 H   0  0  0  0  0  0  0  0  0  0  0  0
   -0.0127    1.0858    0.0080 C   0  0  0  0  0  0  0  0  0  0  0  0
   -0.7416    1.5850   -1.2129 C   0  0  0  0  0  0  0  0  0  0  0  0
   -1.7553    0.8273   -1.7835 C   0  0  0  0  0  0  0  0  0  0  0  0
   -2.4016    1.3247   -2.9014 C   0  0  0  0  0  0  0  0  0  0  0  0
   -2.0102    2.5537   -3.4175 C   0  0  0  0  0  0  0  0  0  0  0  0
   -1.0362    3.2440   -2.8486 N   0  0  0  0  0  0  0  0  0  0  0  0
   -0.4045    2.7980   -1.7792 C   0  0  0  0  0  0  0  0  0  0  0  0
   -2.6327    3.0502   -4.5160 O   0  0  0  0  0  0  0  0  0  0  0  0
   -2.1841    4.3183   -4.9984 C   0  0  0  0  0  0  0  0  0  0  0  0
   -2.9976    4.7110   -6.2333 C   0  0  0  0  0  0  0  0  0  0  0  0
   -2.5245    6.0484   -6.7420 C   0  0  0  0  0  0  0  0  0  0  0  0
   -2.1132    6.1723   -8.0541 C   0  0  0  0  0  0  0  0  0  0  0  0
   -1.6828    7.4081   -8.5157 C   0  0  0  0  0  0  0  0  0  0  0  0
   -1.6699    8.4782   -7.6355 C   0  0  0  0  0  0  0  0  0  0  0  0
   -2.0940    8.2816   -6.3287 C   0  0  0  0  0  0  0  0  0  0  0  0
   -2.1010    9.3369   -5.4186 N   0  0  0  0  0  0  0  0  0  0  0  0
   -1.3785   10.5710   -5.7534 C   0  0  0  0  0  0  0  0  0  0  0  0
   -1.7114   10.9322   -7.2070 C   0  0  0  0  0  0  0  0  0  0  0  0
   -1.1946    9.8207   -8.1210 C   0  0  0  0  0  0  0  0  0  0  0  0
   -0.0638    0.9713    2.5033 C   0  0  0  0  0  0  0  0  0  0  0  0
   -0.8428    1.3581    3.7340 C   0  0  0  0  0  0  0  0  0  0  0  0
   -1.8288    2.0490    3.6325 O   0  0  0  0  0  0  0  0  0  0  0  0
    0.4057    3.4074    1.3739 H   0  0  0  0  0  0  0  0  0  0  0  0
   -1.1148    3.5381    0.4577 H   0  0  0  0  0  0  0  0  0  0  0  0
   -1.1511    3.4565    2.2354 H   0  0  0  0  0  0  0  0  0  0  0  0
    0.0021   -0.0041    0.0020 H   0  0  0  0  0  0  0  0  0  0  0  0
    1.0099    1.4631    0.0003 H   0  0  0  0  0  0  0  0  0  0  0  0
   -2.0353   -0.1270   -1.3626 H   0  0  0  0  0  0  0  0  0  0  0  0
   -3.1973    0.7634   -3.3685 H   0  0  0  0  0  0  0  0  0  0  0  0
    0.3864    3.3893   -1.3418 H   0  0  0  0  0  0  0  0  0  0  0  0
   -2.3175    5.0706   -4.2211 H   0  0  0  0  0  0  0  0  0  0  0  0
   -1.1289    4.2534   -5.2640 H   0  0  0  0  0  0  0  0  0  0  0  0
   -2.8642    3.9587   -7.0106 H   0  0  0  0  0  0  0  0  0  0  0  0
   -4.0528    4.7759   -5.9677 H   0  0  0  0  0  0  0  0  0  0  0  0
   -2.1299    5.3181   -8.7148 H   0  0  0  0  0  0  0  0  0  0  0  0
   -1.3604    7.5323   -9.5390 H   0  0  0  0  0  0  0  0  0  0  0  0
   -2.5756    9.2574   -4.5764 H   0  0  0  0  0  0  0  0  0  0  0  0
   -1.6969   11.3761   -5.0911 H   0  0  0  0  0  0  0  0  0  0  0  0
   -0.3055   10.4102   -5.6489 H   0  0  0  0  0  0  0  0  0  0  0  0
   -2.7911   11.0273   -7.3218 H   0  0  0  0  0  0  0  0  0  0  0  0
   -1.2317   11.8755   -7.4682 H   0  0  0  0  0  0  0  0  0  0  0  0
   -1.5605    9.9879   -9.1341 H   0  0  0  0  0  0  0  0  0  0  0  0
   -0.1047    9.8344   -8.1245 H   0  0  0  0  0  0  0  0  0  0  0  0
   -0.0472   -0.1146    2.4102 H   0  0  0  0  0  0  0  0  0  0  0  0
    0.9570    1.3444    2.5873 H   0  0  0  0  0  0  0  0  0  0  0  0
   -2.5273    7.0749   -5.8514 N   0  3  0  0  0  0  0  0  0  0  0  0
   -2.8358    6.9523   -4.8797 H   0  0  0  0  0  0  0  0  0  0  0  0
   -0.4413    0.9349    4.9430 O   0  5  0  0  0  0  0  0  0  0  0  0
  1  2  1  0  0  0  0
  1 26  1  0  0  0  0
  1 27  1  0  0  0  0
  1 28  1  0  0  0  0
  2  3  1  0  0  0  0
  2  4  1  0  0  0  0
  2 23  1  0  0  0  0
  4  5  1  0  0  0  0
  4 29  1  0  0  0  0
  4 30  1  0  0  0  0
  5 10  2  0  0  0  0
  5  6  1  0  0  0  0
  6  7  2  0  0  0  0
  6 31  1  0  0  0  0
  7  8  1  0  0  0  0
  7 32  1  0  0  0  0
  8  9  2  0  0  0  0
  8 11  1  0  0  0  0
  9 10  1  0  0  0  0
 10 33  1  0  0  0  0
 11 12  1  0  0  0  0
 12 13  1  0  0  0  0
 12 34  1  0  0  0  0
 12 35  1  0  0  0  0
 13 14  1  0  0  0  0
 13 36  1  0  0  0  0
 13 37  1  0  0  0  0
 14 15  2  0  0  0  0
 14 49  1  0  0  0  0
 15 16  1  0  0  0  0
 15 38  1  0  0  0  0
 16 17  2  0  0  0  0
 16 39  1  0  0  0  0
 17 22  1  0  0  0  0
 17 18  1  0  0  0  0
 18 19  1  0  0  0  0
 18 49  2  0  0  0  0
 19 20  1  0  0  0  0
 19 40  1  0  0  0  0
 20 21  1  0  0  0  0
 20 41  1  0  0  0  0
 20 42  1  0  0  0  0
 21 22  1  0  0  0  0
 21 43  1  0  0  0  0
 21 44  1  0  0  0  0
 22 45  1  0  0  0  0
 22 46  1  0  0  0  0
 23 24  1  0  0  0  0
 23 47  1  0  0  0  0
 23 48  1  0  0  0  0
 24 25  2  0  0  0  0
 24 51  1  0  0  0  0
 49 50  1  0  0  0  0
M  CHG  2  49   1  51  -1
M  END
$$$$
ZINC03962250
  -OEChem-08230709463D

 58 62  0     1  0  0  0  0  0999 V2000
   -0.6660    3.1191   -1.2886 C   0  0  0  0  0  0  0  0  0  0  0  0
   -0.7527    1.5927   -1.2315 C   0  0  0  0  0  0  0  0  0  0  0  0
   -0.1114    0.9981   -2.4870 C   0  0  0  0  0  0  0  0  0  0  0  0
   -0.0127    1.0858    0.0080 C   0  0  0  0  0  0  0  0  0  0  0  0
   -0.7181    1.5718    1.2479 C   0  0  0  0  0  0  0  0  0  0  0  0
   -0.3571    2.7803    1.8166 C   0  0  0  0  0  0  0  0  0  0  0  0
   -1.0022    3.2333    2.9489 C   0  0  0  0  0  0  0  0  0  0  0  0
   -2.0139    2.4647    3.5265 C   0  0  0  0  0  0  0  0  0  0  0  0
   -2.3696    1.2440    2.9508 C   0  0  0  0  0  0  0  0  0  0  0  0
   -1.7199    0.8048    1.8157 C   0  0  0  0  0  0  0  0  0  0  0  0
   -2.7062    2.9417    4.7426 C   0  0  0  0  0  0  0  0  0  0  0  0
   -2.4738    4.0687    5.3885 N   0  0  0  0  0  0  0  0  0  0  0  0
   -3.3382    4.0756    6.4247 C   0  0  0  0  0  0  0  0  0  0  0  0
   -4.0386    2.9726    6.3564 N   0  0  0  0  0  0  0  0  0  0  0  0
   -3.6953    2.3141    5.3975 O   0  0  0  0  0  0  0  0  0  0  0  0
   -3.4696    5.1381    7.4530 C   0  0  0  0  0  0  0  0  0  0  0  0
   -2.6522    6.2654    7.4031 C   0  0  0  0  0  0  0  0  0  0  0  0
   -2.7807    7.2482    8.3615 C   0  0  0  0  0  0  0  0  0  0  0  0
   -3.7188    7.1214    9.3742 C   0  0  0  0  0  0  0  0  0  0  0  0
   -4.5326    6.0042    9.4282 C   0  0  0  0  0  0  0  0  0  0  0  0
   -4.4138    5.0159    8.4681 C   0  0  0  0  0  0  0  0  0  0  0  0
   -5.4630    6.1061   10.6181 C   0  0  0  0  0  0  0  0  0  0  0  0
   -4.8371    7.1833   11.5291 C   0  0  0  0  0  0  0  0  0  0  0  0
   -4.0478    8.0492   10.5246 C   0  0  2  0  0  0  0  0  0  0  0  0
   -3.1321    8.4216   10.9840 H   0  0  0  0  0  0  0  0  0  0  0  0
   -5.7059    8.7663    8.9052 C   0  0  0  0  0  0  0  0  0  0  0  0
   -5.3824   10.1248    8.2678 C   0  0  0  0  0  0  0  0  0  0  0  0
   -4.1186   10.0365    9.1348 C   0  0  0  0  0  0  0  0  0  0  0  0
   -5.1188   10.0684    6.7852 C   0  0  0  0  0  0  0  0  0  0  0  0
   -3.9867    9.9622    6.3765 O   0  0  0  0  0  0  0  0  0  0  0  0
   -1.1932    3.4802   -2.1717 H   0  0  0  0  0  0  0  0  0  0  0  0
   -1.1229    3.5427   -0.3942 H   0  0  0  0  0  0  0  0  0  0  0  0
    0.3797    3.4220   -1.3406 H   0  0  0  0  0  0  0  0  0  0  0  0
   -1.7985    1.2898   -1.1795 H   0  0  0  0  0  0  0  0  0  0  0  0
   -0.1731   -0.0894   -2.4463 H   0  0  0  0  0  0  0  0  0  0  0  0
   -0.6386    1.3592   -3.3700 H   0  0  0  0  0  0  0  0  0  0  0  0
    0.9344    1.3010   -2.5390 H   0  0  0  0  0  0  0  0  0  0  0  0
    0.0021   -0.0041    0.0020 H   0  0  0  0  0  0  0  0  0  0  0  0
    1.0099    1.4631    0.0003 H   0  0  0  0  0  0  0  0  0  0  0  0
    0.4287    3.3722    1.3711 H   0  0  0  0  0  0  0  0  0  0  0  0
   -0.7223    4.1787    3.3896 H   0  0  0  0  0  0  0  0  0  0  0  0
   -3.1514    0.6444    3.3931 H   0  0  0  0  0  0  0  0  0  0  0  0
   -1.9941   -0.1395    1.3692 H   0  0  0  0  0  0  0  0  0  0  0  0
   -1.9204    6.3693    6.6157 H   0  0  0  0  0  0  0  0  0  0  0  0
   -2.1471    8.1220    8.3228 H   0  0  0  0  0  0  0  0  0  0  0  0
   -5.0525    4.1459    8.5082 H   0  0  0  0  0  0  0  0  0  0  0  0
   -5.5138    5.1513   11.1414 H   0  0  0  0  0  0  0  0  0  0  0  0
   -6.4573    6.4148   10.2955 H   0  0  0  0  0  0  0  0  0  0  0  0
   -4.1674    6.7308   12.2604 H   0  0  0  0  0  0  0  0  0  0  0  0
   -5.6113    7.7709   12.0226 H   0  0  0  0  0  0  0  0  0  0  0  0
   -5.3000    7.9194    8.3519 H   0  0  0  0  0  0  0  0  0  0  0  0
   -6.7603    8.6427    9.1526 H   0  0  0  0  0  0  0  0  0  0  0  0
   -6.0645   10.9256    8.5535 H   0  0  0  0  0  0  0  0  0  0  0  0
   -3.8277   10.9895    9.5767 H   0  0  0  0  0  0  0  0  0  0  0  0
   -3.2885    9.5289    8.6435 H   0  0  0  0  0  0  0  0  0  0  0  0
   -4.8680    9.1805    9.9236 N   0  3  0  0  0  0  0  0  0  0  0  0
   -5.3692    9.6706   10.6738 H   0  0  0  0  0  0  0  0  0  0  0  0
   -6.1416   10.1361    5.9186 O   0  5  0  0  0  0  0  0  0  0  0  0
  1  2  1  0  0  0  0
  1 31  1  0  0  0  0
  1 32  1  0  0  0  0
  1 33  1  0  0  0  0
  2  3  1  0  0  0  0
  2  4  1  0  0  0  0
  2 34  1  0  0  0  0
  3 35  1  0  0  0  0
  3 36  1  0  0  0  0
  3 37  1  0  0  0  0
  4  5  1  0  0  0  0
  4 38  1  0  0  0  0
  4 39  1  0  0  0  0
  5 10  2  0  0  0  0
  5  6  1  0  0  0  0
  6  7  2  0  0  0  0
  6 40  1  0  0  0  0
  7  8  1  0  0  0  0
  7 41  1  0  0  0  0
  8  9  2  0  0  0  0
  8 11  1  0  0  0  0
  9 10  1  0  0  0  0
  9 42  1  0  0  0  0
 10 43  1  0  0  0  0
 11 15  1  0  0  0  0
 11 12  2  0  0  0  0
 12 13  1  0  0  0  0
 13 14  2  0  0  0  0
 13 16  1  0  0  0  0
 14 15  1  0  0  0  0
 16 21  2  0  0  0  0
 16 17  1  0  0  0  0
 17 18  2  0  0  0  0
 17 44  1  0  0  0  0
 18 19  1  0  0  0  0
 18 45  1  0  0  0  0
 19 24  1  0  0  0  0
 19 20  2  0  0  0  0
 20 21  1  0  0  0  0
 20 22  1  0  0  0  0
 21 46  1  0  0  0  0
 22 23  1  0  0  0  0
 22 47  1  0  0  0  0
 22 48  1  0  0  0  0
 23 24  1  0  0  0  0
 23 49  1  0  0  0  0
 23 50  1  0  0  0  0
 24 25  1  0  0  0  0
 24 56  1  0  0  0  0
 26 27  1  0  0  0  0
 26 51  1  0  0  0  0
 26 52  1  0  0  0  0
 26 56  1  0  0  0  0
 27 28  1  0  0  0  0
 27 29  1  0  0  0  0
 27 53  1  0  0  0  0
 28 54  1  0  0  0  0
 28 55  1  0  0  0  0
 28 56  1  0  0  0  0
 29 30  2  0  0  0  0
 29 58  1  0  0  0  0
 56 57  1  0  0  0  0
M  CHG  2  56   1  58  -1
M  END
$$$$
ZINC03963713
  -OEChem-08230709463D

 58 60  0     1  0  0  0  0  0999 V2000
   -3.0820   -5.7316   -3.7490 C   0  0  0  0  0  0  0  0  0  0  0  0
   -2.5857   -4.3014   -3.5270 C   0  0  0  0  0  0  0  0  0  0  0  0
   -1.1459   -4.1775   -4.0295 C   0  0  0  0  0  0  0  0  0  0  0  0
   -3.4418   -3.3677   -4.2629 N   0  0  0  0  0  0  0  0  0  0  0  0
   -4.1512   -2.3835   -3.5697 C   0  0  0  0  0  0  0  0  0  0  0  0
   -3.7767   -2.0303   -2.2798 C   0  0  0  0  0  0  0  0  0  0  0  0
   -4.4792   -1.0532   -1.6023 C   0  0  0  0  0  0  0  0  0  0  0  0
   -5.5604   -0.4341   -2.2028 C   0  0  0  0  0  0  0  0  0  0  0  0
   -5.9355   -0.7831   -3.4872 C   0  0  0  0  0  0  0  0  0  0  0  0
   -5.2341   -1.7561   -4.1715 C   0  0  0  0  0  0  0  0  0  0  0  0
   -5.6406   -2.1401   -5.5705 C   0  0  0  0  0  0  0  0  0  0  0  0
   -4.3970   -2.5047   -6.3820 C   0  0  0  0  0  0  0  0  0  0  0  0
   -3.5390   -3.4637   -5.6015 C   0  0  0  0  0  0  0  0  0  0  0  0
   -2.7330   -4.6097   -6.3721 S   0  0  0  0  0  0  0  0  0  0  0  0
   -6.5841   -3.3433   -5.5151 C   0  0  0  0  0  0  0  0  0  0  0  0
   -6.3555   -0.9619   -6.2352 C   0  0  0  0  0  0  0  0  0  0  0  0
   -6.3276    0.6278   -1.4580 C   0  0  1  0  0  0  0  0  0  0  0  0
   -7.8514    0.4977   -1.4129 C   0  0  0  0  0  0  0  0  0  0  0  0
   -7.0222    0.2168   -0.1581 C   0  0  1  0  0  0  0  0  0  0  0  0
   -7.0615    0.9516    0.6460 H   0  0  0  0  0  0  0  0  0  0  0  0
   -6.8867   -1.2189    0.2793 C   0  0  0  0  0  0  0  0  0  0  0  0
   -7.2558   -1.5791    1.5100 C   0  0  0  0  0  0  0  0  0  0  0  0
   -7.1243   -2.9729    1.9347 C   0  0  0  0  0  0  0  0  0  0  0  0
   -7.4986   -3.3381    3.1825 C   0  0  0  0  0  0  0  0  0  0  0  0
   -7.5897   -4.7117    3.5218 C   0  0  0  0  0  0  0  0  0  0  0  0
   -7.4087   -5.5618    2.6707 O   0  0  0  0  0  0  0  0  0  0  0  0
   -6.5718   -4.0019    0.9823 C   0  0  0  0  0  0  0  0  0  0  0  0
   -5.7409    2.0390   -1.5297 C   0  0  0  0  0  0  0  0  0  0  0  0
   -2.8137   -6.0574   -4.7540 H   0  0  0  0  0  0  0  0  0  0  0  0
   -2.6202   -6.3941   -3.0169 H   0  0  0  0  0  0  0  0  0  0  0  0
   -4.1655   -5.7621   -3.6342 H   0  0  0  0  0  0  0  0  0  0  0  0
   -2.6209   -4.0656   -2.4634 H   0  0  0  0  0  0  0  0  0  0  0  0
   -0.7773   -3.1710   -3.8313 H   0  0  0  0  0  0  0  0  0  0  0  0
   -0.5171   -4.9029   -3.5131 H   0  0  0  0  0  0  0  0  0  0  0  0
   -1.1174   -4.3702   -5.1019 H   0  0  0  0  0  0  0  0  0  0  0  0
   -2.9354   -2.5167   -1.8085 H   0  0  0  0  0  0  0  0  0  0  0  0
   -4.1863   -0.7749   -0.6007 H   0  0  0  0  0  0  0  0  0  0  0  0
   -6.7775   -0.2949   -3.9552 H   0  0  0  0  0  0  0  0  0  0  0  0
   -4.7002   -2.9708   -7.3195 H   0  0  0  0  0  0  0  0  0  0  0  0
   -3.8259   -1.6010   -6.5951 H   0  0  0  0  0  0  0  0  0  0  0  0
   -7.4710   -3.0833   -4.9374 H   0  0  0  0  0  0  0  0  0  0  0  0
   -6.8782   -3.6212   -6.5272 H   0  0  0  0  0  0  0  0  0  0  0  0
   -6.0750   -4.1826   -5.0413 H   0  0  0  0  0  0  0  0  0  0  0  0
   -5.6836   -0.1045   -6.2744 H   0  0  0  0  0  0  0  0  0  0  0  0
   -6.6497   -1.2396   -7.2473 H   0  0  0  0  0  0  0  0  0  0  0  0
   -7.2425   -0.7023   -5.6573 H   0  0  0  0  0  0  0  0  0  0  0  0
   -8.2990   -0.3559   -1.9219 H   0  0  0  0  0  0  0  0  0  0  0  0
   -8.4362    1.4173   -1.4342 H   0  0  0  0  0  0  0  0  0  0  0  0
   -6.4908   -1.9563   -0.4032 H   0  0  0  0  0  0  0  0  0  0  0  0
   -7.6518   -0.8417    2.1926 H   0  0  0  0  0  0  0  0  0  0  0  0
   -7.7279   -2.5833    3.9201 H   0  0  0  0  0  0  0  0  0  0  0  0
   -7.3910   -4.5875    0.5651 H   0  0  0  0  0  0  0  0  0  0  0  0
   -6.0363   -3.5003    0.1762 H   0  0  0  0  0  0  0  0  0  0  0  0
   -5.8887   -4.6619    1.5168 H   0  0  0  0  0  0  0  0  0  0  0  0
   -4.9884    2.1597   -0.7505 H   0  0  0  0  0  0  0  0  0  0  0  0
   -5.2808    2.1920   -2.5060 H   0  0  0  0  0  0  0  0  0  0  0  0
   -6.5356    2.7707   -1.3840 H   0  0  0  0  0  0  0  0  0  0  0  0
   -7.8717   -5.0761    4.7900 O   0  5  0  0  0  0  0  0  0  0  0  0
  1  2  1  0  0  0  0
  1 29  1  0  0  0  0
  1 30  1  0  0  0  0
  1 31  1  0  0  0  0
  2  3  1  0  0  0  0
  2  4  1  0  0  0  0
  2 32  1  0  0  0  0
  3 33  1  0  0  0  0
  3 34  1  0  0  0  0
  3 35  1  0  0  0  0
  4 13  1  0  0  0  0
  4  5  1  0  0  0  0
  5 10  2  0  0  0  0
  5  6  1  0  0  0  0
  6  7  2  0  0  0  0
  6 36  1  0  0  0  0
  7  8  1  0  0  0  0
  7 37  1  0  0  0  0
  8  9  2  0  0  0  0
  8 17  1  0  0  0  0
  9 10  1  0  0  0  0
  9 38  1  0  0  0  0
 10 11  1  0  0  0  0
 11 12  1  0  0  0  0
 11 15  1  0  0  0  0
 11 16  1  0  0  0  0
 12 13  1  0  0  0  0
 12 39  1  0  0  0  0
 12 40  1  0  0  0  0
 13 14  2  0  0  0  0
 15 41  1  0  0  0  0
 15 42  1  0  0  0  0
 15 43  1  0  0  0  0
 16 44  1  0  0  0  0
 16 45  1  0  0  0  0
 16 46  1  0  0  0  0
 17 19  1  0  0  0  0
 17 18  1  0  0  0  0
 17 28  1  0  0  0  0
 18 19  1  0  0  0  0
 18 47  1  0  0  0  0
 18 48  1  0  0  0  0
 19 20  1  0  0  0  0
 19 21  1  0  0  0  0
 21 22  2  0  0  0  0
 21 49  1  0  0  0  0
 22 23  1  0  0  0  0
 22 50  1  0  0  0  0
 23 24  2  0  0  0  0
 23 27  1  0  0  0  0
 24 25  1  0  0  0  0
 24 51  1  0  0  0  0
 25 26  2  0  0  0  0
 25 58  1  0  0  0  0
 27 52  1  0  0  0  0
 27 53  1  0  0  0  0
 27 54  1  0  0  0  0
 28 55  1  0  0  0  0
 28 56  1  0  0  0  0
 28 57  1  0  0  0  0
M  CHG  1  58  -1
M  END
$$$$
ZINC03969026
  -OEChem-08230709463D

 51 53  0     1  0  0  0  0  0999 V2000
    4.2506    5.8766   -2.5376 C   0  0  0  0  0  0  0  0  0  0  0  0
    4.1782    5.2971   -1.1235 C   0  0  0  0  0  0  0  0  0  0  0  0
    3.9531    3.8646   -1.1985 O   0  0  0  0  0  0  0  0  0  0  0  0
    3.8637    3.1968   -0.0300 C   0  0  0  0  0  0  0  0  0  0  0  0
    3.9710    3.7963    1.0229 O   0  0  0  0  0  0  0  0  0  0  0  0
    3.6373    1.7500   -0.0290 C   0  0  0  0  0  0  0  0  0  0  0  0
    4.7483    0.8130   -0.0396 C   0  0  0  0  0  0  0  0  0  0  0  0
    4.4003   -0.4919   -0.0434 C   0  0  0  0  0  0  0  0  0  0  0  0
    2.6300   -0.4886   -0.0263 S   0  0  0  0  0  0  0  0  0  0  0  0
    2.3531    1.2217   -0.0138 C   0  0  0  0  0  0  0  0  0  0  0  0
    1.1435    1.8983    0.0013 N   0  0  0  0  0  0  0  0  0  0  0  0
   -0.0144    1.2086    0.0087 C   0  0  0  0  0  0  0  0  0  0  0  0
    0.0021   -0.0041    0.0020 O   0  0  0  0  0  0  0  0  0  0  0  0
   -1.3296    1.9443    0.0189 C   0  0  1  0  0  0  0  0  0  0  0  0
   -1.3977    2.5605    0.9154 H   0  0  0  0  0  0  0  0  0  0  0  0
   -1.4326    2.8311   -1.2239 C   0  0  0  0  0  0  0  0  0  0  0  0
   -2.8292    3.3613   -1.3662 C   0  0  0  0  0  0  0  0  0  0  0  0
   -3.8586    2.8658   -0.7576 C   0  0  0  0  0  0  0  0  0  0  0  0
   -3.7978    1.6979    0.1827 C   0  0  0  0  0  0  0  0  0  0  0  0
   -2.4848    0.9355   -0.0077 C   0  0  2  0  0  0  0  0  0  0  0  0
   -2.4976    0.4183   -0.9671 H   0  0  0  0  0  0  0  0  0  0  0  0
   -2.3119   -0.0623    1.1083 C   0  0  0  0  0  0  0  0  0  0  0  0
   -1.3629    0.0210    1.8515 O   0  0  0  0  0  0  0  0  0  0  0  0
    5.3218   -1.6724   -0.0580 C   0  0  0  0  0  0  0  0  0  0  0  0
    6.7324   -1.1896    0.3096 C   0  0  2  0  0  0  0  0  0  0  0  0
    6.7680   -0.9385    1.3697 H   0  0  0  0  0  0  0  0  0  0  0  0
    7.0613    0.0527   -0.5234 C   0  0  0  0  0  0  0  0  0  0  0  0
    6.2125    1.2347   -0.0518 C   0  0  0  0  0  0  0  0  0  0  0  0
    7.7475   -2.2936    0.0068 C   0  0  0  0  0  0  0  0  0  0  0  0
    5.0711    5.4079   -3.0808 H   0  0  0  0  0  0  0  0  0  0  0  0
    3.3127    5.6830   -3.0582 H   0  0  0  0  0  0  0  0  0  0  0  0
    4.4196    6.9520   -2.4813 H   0  0  0  0  0  0  0  0  0  0  0  0
    3.3576    5.7658   -0.5803 H   0  0  0  0  0  0  0  0  0  0  0  0
    5.1160    5.4907   -0.6030 H   0  0  0  0  0  0  0  0  0  0  0  0
    1.1304    2.8682    0.0067 H   0  0  0  0  0  0  0  0  0  0  0  0
   -0.7371    3.6652   -1.1312 H   0  0  0  0  0  0  0  0  0  0  0  0
   -1.1764    2.2462   -2.1073 H   0  0  0  0  0  0  0  0  0  0  0  0
   -2.9851    4.2093   -2.0165 H   0  0  0  0  0  0  0  0  0  0  0  0
   -4.8212    3.3210   -0.9381 H   0  0  0  0  0  0  0  0  0  0  0  0
   -3.8609    2.0573    1.2098 H   0  0  0  0  0  0  0  0  0  0  0  0
   -4.6358    1.0298   -0.0162 H   0  0  0  0  0  0  0  0  0  0  0  0
    4.9849   -2.4102    0.6701 H   0  0  0  0  0  0  0  0  0  0  0  0
    5.3335   -2.1167   -1.0533 H   0  0  0  0  0  0  0  0  0  0  0  0
    8.1174    0.2966   -0.4084 H   0  0  0  0  0  0  0  0  0  0  0  0
    6.8497   -0.1490   -1.5735 H   0  0  0  0  0  0  0  0  0  0  0  0
    6.5174    1.5255    0.9534 H   0  0  0  0  0  0  0  0  0  0  0  0
    6.3451    2.0748   -0.7336 H   0  0  0  0  0  0  0  0  0  0  0  0
    7.7132   -2.5374   -1.0550 H   0  0  0  0  0  0  0  0  0  0  0  0
    8.7479   -1.9490    0.2684 H   0  0  0  0  0  0  0  0  0  0  0  0
    7.5044   -3.1809    0.5913 H   0  0  0  0  0  0  0  0  0  0  0  0
   -3.2121   -1.0437    1.2766 O   0  5  0  0  0  0  0  0  0  0  0  0
  1  2  1  0  0  0  0
  1 30  1  0  0  0  0
  1 31  1  0  0  0  0
  1 32  1  0  0  0  0
  2  3  1  0  0  0  0
  2 33  1  0  0  0  0
  2 34  1  0  0  0  0
  3  4  1  0  0  0  0
  4  5  2  0  0  0  0
  4  6  1  0  0  0  0
  6 10  2  0  0  0  0
  6  7  1  0  0  0  0
  7 28  1  0  0  0  0
  7  8  2  0  0  0  0
  8  9  1  0  0  0  0
  8 24  1  0  0  0  0
  9 10  1  0  0  0  0
 10 11  1  0  0  0  0
 11 12  1  0  0  0  0
 11 35  1  0  0  0  0
 12 13  2  0  0  0  0
 12 14  1  0  0  0  0
 14 15  1  0  0  0  0
 14 20  1  0  0  0  0
 14 16  1  0  0  0  0
 16 17  1  0  0  0  0
 16 36  1  0  0  0  0
 16 37  1  0  0  0  0
 17 18  2  0  0  0  0
 17 38  1  0  0  0  0
 18 19  1  0  0  0  0
 18 39  1  0  0  0  0
 19 20  1  0  0  0  0
 19 40  1  0  0  0  0
 19 41  1  0  0  0  0
 20 21  1  0  0  0  0
 20 22  1  0  0  0  0
 22 23  2  0  0  0  0
 22 51  1  0  0  0  0
 24 25  1  0  0  0  0
 24 42  1  0  0  0  0
 24 43  1  0  0  0  0
 25 26  1  0  0  0  0
 25 27  1  0  0  0  0
 25 29  1  0  0  0  0
 27 28  1  0  0  0  0
 27 44  1  0  0  0  0
 27 45  1  0  0  0  0
 28 46  1  0  0  0  0
 28 47  1  0  0  0  0
 29 48  1  0  0  0  0
 29 49  1  0  0  0  0
 29 50  1  0  0  0  0
M  CHG  1  51  -1
M  END
$$$$
ZINC03969270
  -OEChem-08230709463D

 51 53  0     1  0  0  0  0  0999 V2000
   -1.9919    9.1904   -1.0421 C   0  0  0  0  0  0  0  0  0  0  0  0
   -1.6057    7.8748   -0.3631 C   0  0  0  0  0  0  0  0  0  0  0  0
   -2.1960    7.8366    1.0479 C   0  0  0  0  0  0  0  0  0  0  0  0
   -2.1256    6.7606   -1.1356 O   0  0  0  0  0  0  0  0  0  0  0  0
   -1.3278    6.2594   -2.1007 C   0  0  0  0  0  0  0  0  0  0  0  0
   -0.2271    6.7411   -2.2910 O   0  0  0  0  0  0  0  0  0  0  0  0
   -1.7865    5.1353   -2.9195 C   0  0  0  0  0  0  0  0  0  0  0  0
   -2.5128    5.3526   -4.1596 C   0  0  0  0  0  0  0  0  0  0  0  0
   -2.8773    4.2307   -4.8169 C   0  0  0  0  0  0  0  0  0  0  0  0
   -2.2649    2.9022   -3.8198 S   0  0  0  0  0  0  0  0  0  0  0  0
   -1.5437    3.8216   -2.5405 C   0  0  0  0  0  0  0  0  0  0  0  0
   -0.8801    3.3584   -1.4152 N   0  0  0  0  0  0  0  0  0  0  0  0
   -0.7401    2.0333   -1.2131 C   0  0  0  0  0  0  0  0  0  0  0  0
   -1.1948    1.2461   -2.0159 O   0  0  0  0  0  0  0  0  0  0  0  0
   -0.0187    1.5297    0.0105 C   0  0  2  0  0  0  0  0  0  0  0  0
   -0.5235    1.8843    0.9091 H   0  0  0  0  0  0  0  0  0  0  0  0
    1.4262    2.0334   -0.0006 C   0  0  0  0  0  0  0  0  0  0  0  0
    2.2260    1.3327    1.0583 C   0  0  0  0  0  0  0  0  0  0  0  0
    1.8593    0.2338    1.6359 C   0  0  0  0  0  0  0  0  0  0  0  0
    0.5784   -0.4876    1.3345 C   0  0  0  0  0  0  0  0  0  0  0  0
    0.0021   -0.0041    0.0020 C   0  0  1  0  0  0  0  0  0  0  0  0
    0.6277   -0.3575   -0.8176 H   0  0  0  0  0  0  0  0  0  0  0  0
   -1.4003   -0.5288   -0.1685 C   0  0  0  0  0  0  0  0  0  0  0  0
   -2.3251    0.2418   -0.2731 O   0  0  0  0  0  0  0  0  0  0  0  0
   -3.6294    4.1450   -6.1092 C   0  0  0  0  0  0  0  0  0  0  0  0
   -4.2565    5.5171   -6.3959 C   0  0  0  0  0  0  0  0  0  0  0  0
   -3.1901    6.5981   -6.1972 C   0  0  0  0  0  0  0  0  0  0  0  0
   -2.8553    6.7314   -4.7105 C   0  0  0  0  0  0  0  0  0  0  0  0
   -3.0779    9.2640   -1.1004 H   0  0  0  0  0  0  0  0  0  0  0  0
   -1.6016   10.0268   -0.4622 H   0  0  0  0  0  0  0  0  0  0  0  0
   -1.5714    9.2176   -2.0473 H   0  0  0  0  0  0  0  0  0  0  0  0
   -0.5198    7.8011   -0.3048 H   0  0  0  0  0  0  0  0  0  0  0  0
   -1.9208    6.8993    1.5316 H   0  0  0  0  0  0  0  0  0  0  0  0
   -1.8057    8.6730    1.6278 H   0  0  0  0  0  0  0  0  0  0  0  0
   -3.2819    7.9103    0.9896 H   0  0  0  0  0  0  0  0  0  0  0  0
   -0.5165    3.9880   -0.7730 H   0  0  0  0  0  0  0  0  0  0  0  0
    1.8695    1.8377   -0.9770 H   0  0  0  0  0  0  0  0  0  0  0  0
    1.4362    3.1066    0.1899 H   0  0  0  0  0  0  0  0  0  0  0  0
    3.1662    1.7724    1.3568 H   0  0  0  0  0  0  0  0  0  0  0  0
    2.5159   -0.1900    2.3813 H   0  0  0  0  0  0  0  0  0  0  0  0
   -0.1408   -0.2947    2.1305 H   0  0  0  0  0  0  0  0  0  0  0  0
    0.7719   -1.5588    1.2771 H   0  0  0  0  0  0  0  0  0  0  0  0
   -4.4138    3.3925   -6.0283 H   0  0  0  0  0  0  0  0  0  0  0  0
   -2.9461    3.8779   -6.9153 H   0  0  0  0  0  0  0  0  0  0  0  0
   -5.0851    5.6907   -5.7093 H   0  0  0  0  0  0  0  0  0  0  0  0
   -4.6204    5.5474   -7.4228 H   0  0  0  0  0  0  0  0  0  0  0  0
   -3.5661    7.5507   -6.5705 H   0  0  0  0  0  0  0  0  0  0  0  0
   -2.2901    6.3246   -6.7479 H   0  0  0  0  0  0  0  0  0  0  0  0
   -3.7159    7.1346   -4.1768 H   0  0  0  0  0  0  0  0  0  0  0  0
   -2.0011    7.3970   -4.5865 H   0  0  0  0  0  0  0  0  0  0  0  0
   -1.6220   -1.8521   -0.2043 O   0  5  0  0  0  0  0  0  0  0  0  0
  1  2  1  0  0  0  0
  1 29  1  0  0  0  0
  1 30  1  0  0  0  0
  1 31  1  0  0  0  0
  2  3  1  0  0  0  0
  2  4  1  0  0  0  0
  2 32  1  0  0  0  0
  3 33  1  0  0  0  0
  3 34  1  0  0  0  0
  3 35  1  0  0  0  0
  4  5  1  0  0  0  0
  5  6  2  0  0  0  0
  5  7  1  0  0  0  0
  7 11  2  0  0  0  0
  7  8  1  0  0  0  0
  8 28  1  0  0  0  0
  8  9  2  0  0  0  0
  9 10  1  0  0  0  0
  9 25  1  0  0  0  0
 10 11  1  0  0  0  0
 11 12  1  0  0  0  0
 12 13  1  0  0  0  0
 12 36  1  0  0  0  0
 13 14  2  0  0  0  0
 13 15  1  0  0  0  0
 15 16  1  0  0  0  0
 15 21  1  0  0  0  0
 15 17  1  0  0  0  0
 17 18  1  0  0  0  0
 17 37  1  0  0  0  0
 17 38  1  0  0  0  0
 18 19  2  0  0  0  0
 18 39  1  0  0  0  0
 19 20  1  0  0  0  0
 19 40  1  0  0  0  0
 20 21  1  0  0  0  0
 20 41  1  0  0  0  0
 20 42  1  0  0  0  0
 21 22  1  0  0  0  0
 21 23  1  0  0  0  0
 23 24  2  0  0  0  0
 23 51  1  0  0  0  0
 25 26  1  0  0  0  0
 25 43  1  0  0  0  0
 25 44  1  0  0  0  0
 26 27  1  0  0  0  0
 26 45  1  0  0  0  0
 26 46  1  0  0  0  0
 27 28  1  0  0  0  0
 27 47  1  0  0  0  0
 27 48  1  0  0  0  0
 28 49  1  0  0  0  0
 28 50  1  0  0  0  0
M  CHG  1  51  -1
M  END
$$$$
ZINC03969271
  -OEChem-08230709463D

 51 53  0     1  0  0  0  0  0999 V2000
   -5.6053    2.4560    7.5208 C   0  0  0  0  0  0  0  0  0  0  0  0
   -4.3281    2.2936    6.6942 C   0  0  0  0  0  0  0  0  0  0  0  0
   -3.2704    1.5668    7.5273 C   0  0  0  0  0  0  0  0  0  0  0  0
   -4.6192    1.5203    5.5003 O   0  0  0  0  0  0  0  0  0  0  0  0
   -4.9976    2.2073    4.4029 C   0  0  0  0  0  0  0  0  0  0  0  0
   -5.0816    3.4201    4.4435 O   0  0  0  0  0  0  0  0  0  0  0  0
   -5.3071    1.4930    3.1625 C   0  0  0  0  0  0  0  0  0  0  0  0
   -6.6548    1.0312    2.8746 C   0  0  0  0  0  0  0  0  0  0  0  0
   -6.8026    0.3862    1.6973 C   0  0  0  0  0  0  0  0  0  0  0  0
   -5.1881    0.3933    0.9710 S   0  0  0  0  0  0  0  0  0  0  0  0
   -4.3240    1.2311    2.2174 C   0  0  0  0  0  0  0  0  0  0  0  0
   -2.9792    1.5643    2.2584 N   0  0  0  0  0  0  0  0  0  0  0  0
   -2.1688    1.2228    1.2370 C   0  0  0  0  0  0  0  0  0  0  0  0
   -2.6163    0.6239    0.2821 O   0  0  0  0  0  0  0  0  0  0  0  0
   -0.7067    1.5851    1.2816 C   0  0  1  0  0  0  0  0  0  0  0  0
   -0.5963    2.6667    1.3591 H   0  0  0  0  0  0  0  0  0  0  0  0
   -0.0467    0.9125    2.4875 C   0  0  0  0  0  0  0  0  0  0  0  0
    1.4456    1.0437    2.3997 C   0  0  0  0  0  0  0  0  0  0  0  0
    2.0845    1.3468    1.3154 C   0  0  0  0  0  0  0  0  0  0  0  0
    1.4213    1.6198   -0.0028 C   0  0  0  0  0  0  0  0  0  0  0  0
   -0.0127    1.0858    0.0080 C   0  0  2  0  0  0  0  0  0  0  0  0
    0.0021   -0.0041    0.0020 H   0  0  0  0  0  0  0  0  0  0  0  0
   -0.7498    1.5891   -1.2063 C   0  0  0  0  0  0  0  0  0  0  0  0
   -1.7385    2.2708   -1.0733 O   0  0  0  0  0  0  0  0  0  0  0  0
   -8.0642   -0.1964    1.1388 C   0  0  0  0  0  0  0  0  0  0  0  0
   -9.0988   -0.2841    2.2702 C   0  0  0  0  0  0  0  0  0  0  0  0
   -9.1332    1.0551    3.0122 C   0  0  0  0  0  0  0  0  0  0  0  0
   -7.8403    1.2418    3.8083 C   0  0  0  0  0  0  0  0  0  0  0  0
   -5.9803    1.4733    7.8068 H   0  0  0  0  0  0  0  0  0  0  0  0
   -5.3867    3.0365    8.4170 H   0  0  0  0  0  0  0  0  0  0  0  0
   -6.3588    2.9738    6.9273 H   0  0  0  0  0  0  0  0  0  0  0  0
   -3.9530    3.2763    6.4081 H   0  0  0  0  0  0  0  0  0  0  0  0
   -2.3605    1.4511    6.9384 H   0  0  0  0  0  0  0  0  0  0  0  0
   -3.0518    2.1473    8.4235 H   0  0  0  0  0  0  0  0  0  0  0  0
   -3.6454    0.5841    7.8133 H   0  0  0  0  0  0  0  0  0  0  0  0
   -2.6212    2.0433    3.0222 H   0  0  0  0  0  0  0  0  0  0  0  0
   -0.3162   -0.1435    2.5048 H   0  0  0  0  0  0  0  0  0  0  0  0
   -0.3982    1.3901    3.4020 H   0  0  0  0  0  0  0  0  0  0  0  0
    2.0225    0.8743    3.2968 H   0  0  0  0  0  0  0  0  0  0  0  0
    3.1618    1.4067    1.3624 H   0  0  0  0  0  0  0  0  0  0  0  0
    1.9832    1.1301   -0.7982 H   0  0  0  0  0  0  0  0  0  0  0  0
    1.4052    2.6950   -0.1811 H   0  0  0  0  0  0  0  0  0  0  0  0
   -7.8654   -1.1931    0.7450 H   0  0  0  0  0  0  0  0  0  0  0  0
   -8.4440    0.4439    0.3427 H   0  0  0  0  0  0  0  0  0  0  0  0
   -8.8174   -1.0780    2.9619 H   0  0  0  0  0  0  0  0  0  0  0  0
  -10.0825   -0.4944    1.8502 H   0  0  0  0  0  0  0  0  0  0  0  0
   -9.9835    1.0697    3.6940 H   0  0  0  0  0  0  0  0  0  0  0  0
   -9.2340    1.8654    2.2901 H   0  0  0  0  0  0  0  0  0  0  0  0
   -7.8015    0.5134    4.6183 H   0  0  0  0  0  0  0  0  0  0  0  0
   -7.8069    2.2507    4.2195 H   0  0  0  0  0  0  0  0  0  0  0  0
   -0.3080    1.2800   -2.4355 O   0  5  0  0  0  0  0  0  0  0  0  0
  1  2  1  0  0  0  0
  1 29  1  0  0  0  0
  1 30  1  0  0  0  0
  1 31  1  0  0  0  0
  2  3  1  0  0  0  0
  2  4  1  0  0  0  0
  2 32  1  0  0  0  0
  3 33  1  0  0  0  0
  3 34  1  0  0  0  0
  3 35  1  0  0  0  0
  4  5  1  0  0  0  0
  5  6  2  0  0  0  0
  5  7  1  0  0  0  0
  7 11  2  0  0  0  0
  7  8  1  0  0  0  0
  8 28  1  0  0  0  0
  8  9  2  0  0  0  0
  9 10  1  0  0  0  0
  9 25  1  0  0  0  0
 10 11  1  0  0  0  0
 11 12  1  0  0  0  0
 12 13  1  0  0  0  0
 12 36  1  0  0  0  0
 13 14  2  0  0  0  0
 13 15  1  0  0  0  0
 15 16  1  0  0  0  0
 15 21  1  0  0  0  0
 15 17  1  0  0  0  0
 17 18  1  0  0  0  0
 17 37  1  0  0  0  0
 17 38  1  0  0  0  0
 18 19  2  0  0  0  0
 18 39  1  0  0  0  0
 19 20  1  0  0  0  0
 19 40  1  0  0  0  0
 20 21  1  0  0  0  0
 20 41  1  0  0  0  0
 20 42  1  0  0  0  0
 21 22  1  0  0  0  0
 21 23  1  0  0  0  0
 23 24  2  0  0  0  0
 23 51  1  0  0  0  0
 25 26  1  0  0  0  0
 25 43  1  0  0  0  0
 25 44  1  0  0  0  0
 26 27  1  0  0  0  0
 26 45  1  0  0  0  0
 26 46  1  0  0  0  0
 27 28  1  0  0  0  0
 27 47  1  0  0  0  0
 27 48  1  0  0  0  0
 28 49  1  0  0  0  0
 28 50  1  0  0  0  0
M  CHG  1  51  -1
M  END
$$$$
ZINC03969280
  -OEChem-08230709463D

 54 57  0     1  0  0  0  0  0999 V2000
    3.0204    3.6151   -0.6055 C   0  0  0  0  0  0  0  0  0  0  0  0
    1.5782    4.0439   -0.5196 C   0  0  0  0  0  0  0  0  0  0  0  0
    0.5790    3.0900   -0.4467 C   0  0  0  0  0  0  0  0  0  0  0  0
   -0.7437    3.4765   -0.3740 C   0  0  0  0  0  0  0  0  0  0  0  0
   -1.0714    4.8317   -0.3627 C   0  0  0  0  0  0  0  0  0  0  0  0
   -0.0600    5.7885   -0.4364 C   0  0  0  0  0  0  0  0  0  0  0  0
    1.2588    5.3899   -0.5144 C   0  0  0  0  0  0  0  0  0  0  0  0
   -2.4899    5.2534   -0.2787 C   0  0  0  0  0  0  0  0  0  0  0  0
   -2.9690    5.9308    0.7956 C   0  0  0  0  0  0  0  0  0  0  0  0
   -4.6838    6.1842    0.3888 S   0  0  0  0  0  0  0  0  0  0  0  0
   -4.7389    5.4003   -1.1535 C   0  0  0  0  0  0  0  0  0  0  0  0
   -3.4359    4.9573   -1.3380 C   0  0  0  0  0  0  0  0  0  0  0  0
   -3.0367    4.2273   -2.5413 C   0  0  0  0  0  0  0  0  0  0  0  0
   -3.1139    3.0136   -2.5700 O   0  0  0  0  0  0  0  0  0  0  0  0
   -2.5831    4.9001   -3.6190 O   0  0  0  0  0  0  0  0  0  0  0  0
   -2.2050    4.1108   -4.7776 C   0  0  0  0  0  0  0  0  0  0  0  0
   -5.8245    5.2503   -2.0016 N   0  0  0  0  0  0  0  0  0  0  0  0
   -7.0261    5.7513   -1.6531 C   0  0  0  0  0  0  0  0  0  0  0  0
   -7.1574    6.3334   -0.5973 O   0  0  0  0  0  0  0  0  0  0  0  0
   -8.2067    5.5882   -2.5754 C   0  0  2  0  0  0  0  0  0  0  0  0
   -8.0110    6.0738   -3.5314 H   0  0  0  0  0  0  0  0  0  0  0  0
   -9.4943    6.1736   -1.9190 C   0  0  1  0  0  0  0  0  0  0  0  0
   -9.3738    7.1232   -1.3978 H   0  0  0  0  0  0  0  0  0  0  0  0
  -10.5678    6.1379   -3.0891 C   0  0  0  0  0  0  0  0  0  0  0  0
  -10.8757    4.6353   -3.2813 C   0  0  0  0  0  0  0  0  0  0  0  0
   -9.9710    3.9109   -2.2382 C   0  0  2  0  0  0  0  0  0  0  0  0
  -10.2611    2.8920   -1.9819 H   0  0  0  0  0  0  0  0  0  0  0  0
   -9.9649    4.9475   -1.0596 C   0  0  0  0  0  0  0  0  0  0  0  0
   -8.5224    4.0898   -2.7868 C   0  0  1  0  0  0  0  0  0  0  0  0
   -7.8238    3.4711   -2.2236 H   0  0  0  0  0  0  0  0  0  0  0  0
   -8.4692    3.7433   -4.2524 C   0  0  0  0  0  0  0  0  0  0  0  0
   -8.6000    4.6107   -5.0834 O   0  0  0  0  0  0  0  0  0  0  0  0
   -2.2276    6.3652    2.0337 C   0  0  0  0  0  0  0  0  0  0  0  0
    3.3037    3.5007   -1.6518 H   0  0  0  0  0  0  0  0  0  0  0  0
    3.6524    4.3703   -0.1384 H   0  0  0  0  0  0  0  0  0  0  0  0
    3.1481    2.6641   -0.0885 H   0  0  0  0  0  0  0  0  0  0  0  0
    0.8344    2.0406   -0.4511 H   0  0  0  0  0  0  0  0  0  0  0  0
   -1.5232    2.7309   -0.3220 H   0  0  0  0  0  0  0  0  0  0  0  0
   -0.3082    6.8396   -0.4321 H   0  0  0  0  0  0  0  0  0  0  0  0
    2.0431    6.1301   -0.5720 H   0  0  0  0  0  0  0  0  0  0  0  0
   -1.4049    3.4232   -4.5035 H   0  0  0  0  0  0  0  0  0  0  0  0
   -3.0674    3.5437   -5.1280 H   0  0  0  0  0  0  0  0  0  0  0  0
   -1.8589    4.7732   -5.5711 H   0  0  0  0  0  0  0  0  0  0  0  0
   -5.7195    4.7847   -2.8461 H   0  0  0  0  0  0  0  0  0  0  0  0
  -10.1575    6.5619   -4.0056 H   0  0  0  0  0  0  0  0  0  0  0  0
  -11.4684    6.6754   -2.7926 H   0  0  0  0  0  0  0  0  0  0  0  0
  -10.6168    4.3206   -4.2923 H   0  0  0  0  0  0  0  0  0  0  0  0
  -11.9273    4.4338   -3.0772 H   0  0  0  0  0  0  0  0  0  0  0  0
  -10.9607    5.0985   -0.6429 H   0  0  0  0  0  0  0  0  0  0  0  0
   -9.2397    4.6860   -0.2890 H   0  0  0  0  0  0  0  0  0  0  0  0
   -1.8106    7.3600    1.8772 H   0  0  0  0  0  0  0  0  0  0  0  0
   -2.9149    6.3882    2.8794 H   0  0  0  0  0  0  0  0  0  0  0  0
   -1.4211    5.6615    2.2399 H   0  0  0  0  0  0  0  0  0  0  0  0
   -8.2767    2.4711   -4.6348 O   0  5  0  0  0  0  0  0  0  0  0  0
  1  2  1  0  0  0  0
  1 34  1  0  0  0  0
  1 35  1  0  0  0  0
  1 36  1  0  0  0  0
  2  7  2  0  0  0  0
  2  3  1  0  0  0  0
  3  4  2  0  0  0  0
  3 37  1  0  0  0  0
  4  5  1  0  0  0  0
  4 38  1  0  0  0  0
  5  6  2  0  0  0  0
  5  8  1  0  0  0  0
  6  7  1  0  0  0  0
  6 39  1  0  0  0  0
  7 40  1  0  0  0  0
  8 12  1  0  0  0  0
  8  9  2  0  0  0  0
  9 10  1  0  0  0  0
  9 33  1  0  0  0  0
 10 11  1  0  0  0  0
 11 12  2  0  0  0  0
 11 17  1  0  0  0  0
 12 13  1  0  0  0  0
 13 14  2  0  0  0  0
 13 15  1  0  0  0  0
 15 16  1  0  0  0  0
 16 41  1  0  0  0  0
 16 42  1  0  0  0  0
 16 43  1  0  0  0  0
 17 18  1  0  0  0  0
 17 44  1  0  0  0  0
 18 19  2  0  0  0  0
 18 20  1  0  0  0  0
 20 21  1  0  0  0  0
 20 29  1  0  0  0  0
 20 22  1  0  0  0  0
 22 23  1  0  0  0  0
 22 28  1  0  0  0  0
 22 24  1  0  0  0  0
 24 25  1  0  0  0  0
 24 45  1  0  0  0  0
 24 46  1  0  0  0  0
 25 26  1  0  0  0  0
 25 47  1  0  0  0  0
 25 48  1  0  0  0  0
 26 27  1  0  0  0  0
 26 28  1  0  0  0  0
 26 29  1  0  0  0  0
 28 49  1  0  0  0  0
 28 50  1  0  0  0  0
 29 30  1  0  0  0  0
 29 31  1  0  0  0  0
 31 32  2  0  0  0  0
 31 54  1  0  0  0  0
 33 51  1  0  0  0  0
 33 52  1  0  0  0  0
 33 53  1  0  0  0  0
M  CHG  1  54  -1
M  END
$$$$
ZINC03969282
  -OEChem-08230709463D

 57 60  0     1  0  0  0  0  0999 V2000
    7.7174    1.1068   -2.0216 C   0  0  0  0  0  0  0  0  0  0  0  0
    6.9295    1.3071   -0.7526 C   0  0  0  0  0  0  0  0  0  0  0  0
    7.5406    1.1258    0.4754 C   0  0  0  0  0  0  0  0  0  0  0  0
    6.8239    1.3079    1.6442 C   0  0  0  0  0  0  0  0  0  0  0  0
    5.4951    1.6774    1.5917 C   0  0  0  0  0  0  0  0  0  0  0  0
    4.8724    1.8555    0.3573 C   0  0  0  0  0  0  0  0  0  0  0  0
    5.6001    1.6705   -0.8177 C   0  0  0  0  0  0  0  0  0  0  0  0
    3.4438    2.2458    0.2941 C   0  0  0  0  0  0  0  0  0  0  0  0
    3.0617    3.5482    0.2760 C   0  0  0  0  0  0  0  0  0  0  0  0
    1.2858    3.4529    0.1897 S   0  0  0  0  0  0  0  0  0  0  0  0
    1.0834    1.7338    0.1898 C   0  0  0  0  0  0  0  0  0  0  0  0
    2.3854    1.2547    0.2479 C   0  0  0  0  0  0  0  0  0  0  0  0
    2.6756   -0.1790    0.2625 C   0  0  0  0  0  0  0  0  0  0  0  0
    2.8433   -0.7763   -0.7840 O   0  0  0  0  0  0  0  0  0  0  0  0
    2.7573   -0.8388    1.4362 O   0  0  0  0  0  0  0  0  0  0  0  0
    3.0483   -2.2600    1.3747 C   0  0  0  0  0  0  0  0  0  0  0  0
   -0.0963    1.0086    0.1380 N   0  0  0  0  0  0  0  0  0  0  0  0
   -1.2799    1.6505    0.0794 C   0  0  0  0  0  0  0  0  0  0  0  0
   -1.3128    2.8628    0.0769 O   0  0  0  0  0  0  0  0  0  0  0  0
   -2.5625    0.8618    0.0169 C   0  0  1  0  0  0  0  0  0  0  0  0
   -2.6691    0.2402    0.9058 H   0  0  0  0  0  0  0  0  0  0  0  0
   -3.7836    1.8205   -0.1287 C   0  0  2  0  0  0  0  0  0  0  0  0
   -3.7598    2.7194    0.4875 H   0  0  0  0  0  0  0  0  0  0  0  0
   -5.0277    0.8992    0.0576 C   0  0  0  0  0  0  0  0  0  0  0  0
   -5.0619    0.0263   -1.2177 C   0  0  0  0  0  0  0  0  0  0  0  0
   -3.8353    0.5025   -2.0544 C   0  0  1  0  0  0  0  0  0  0  0  0
   -3.8566    0.2534   -3.1154 H   0  0  0  0  0  0  0  0  0  0  0  0
   -3.8061    2.0274   -1.6843 C   0  0  0  0  0  0  0  0  0  0  0  0
   -2.5968   -0.0110   -1.2584 C   0  0  2  0  0  0  0  0  0  0  0  0
   -1.6850    0.1287   -1.8392 H   0  0  0  0  0  0  0  0  0  0  0  0
   -2.7703   -1.4636   -0.8964 C   0  0  0  0  0  0  0  0  0  0  0  0
   -3.2444   -1.7672    0.1727 O   0  0  0  0  0  0  0  0  0  0  0  0
    3.9313    4.7784    0.3136 C   0  0  0  0  0  0  0  0  0  0  0  0
    4.7174    1.8820    2.8662 C   0  0  0  0  0  0  0  0  0  0  0  0
    8.1778    2.0499   -2.3161 H   0  0  0  0  0  0  0  0  0  0  0  0
    8.4937    0.3605   -1.8532 H   0  0  0  0  0  0  0  0  0  0  0  0
    7.0505    0.7652   -2.8132 H   0  0  0  0  0  0  0  0  0  0  0  0
    8.5815    0.8414    0.5214 H   0  0  0  0  0  0  0  0  0  0  0  0
    7.3062    1.1650    2.6000 H   0  0  0  0  0  0  0  0  0  0  0  0
    5.1239    1.8110   -1.7769 H   0  0  0  0  0  0  0  0  0  0  0  0
    3.0860   -2.6672    2.3851 H   0  0  0  0  0  0  0  0  0  0  0  0
    2.2673   -2.7666    0.8077 H   0  0  0  0  0  0  0  0  0  0  0  0
    4.0101   -2.4131    0.8852 H   0  0  0  0  0  0  0  0  0  0  0  0
   -0.0700    0.0389    0.1400 H   0  0  0  0  0  0  0  0  0  0  0  0
   -5.9357    1.4974    0.1331 H   0  0  0  0  0  0  0  0  0  0  0  0
   -4.9086    0.2743    0.9427 H   0  0  0  0  0  0  0  0  0  0  0  0
   -5.9868    0.1954   -1.7692 H   0  0  0  0  0  0  0  0  0  0  0  0
   -4.9607   -1.0283   -0.9614 H   0  0  0  0  0  0  0  0  0  0  0  0
   -2.9020    2.5183   -2.0446 H   0  0  0  0  0  0  0  0  0  0  0  0
   -4.7063    2.5456   -2.0148 H   0  0  0  0  0  0  0  0  0  0  0  0
    4.1865    5.0742   -0.7040 H   0  0  0  0  0  0  0  0  0  0  0  0
    3.3924    5.5895    0.8034 H   0  0  0  0  0  0  0  0  0  0  0  0
    4.8439    4.5614    0.8686 H   0  0  0  0  0  0  0  0  0  0  0  0
    4.2589    0.9400    3.1672 H   0  0  0  0  0  0  0  0  0  0  0  0
    5.3906    2.2256    3.6515 H   0  0  0  0  0  0  0  0  0  0  0  0
    3.9401    2.6282    2.7017 H   0  0  0  0  0  0  0  0  0  0  0  0
   -2.3982   -2.4200   -1.7616 O   0  5  0  0  0  0  0  0  0  0  0  0
  1  2  1  0  0  0  0
  1 35  1  0  0  0  0
  1 36  1  0  0  0  0
  1 37  1  0  0  0  0
  2  7  2  0  0  0  0
  2  3  1  0  0  0  0
  3  4  2  0  0  0  0
  3 38  1  0  0  0  0
  4  5  1  0  0  0  0
  4 39  1  0  0  0  0
  5  6  2  0  0  0  0
  5 34  1  0  0  0  0
  6  7  1  0  0  0  0
  6  8  1  0  0  0  0
  7 40  1  0  0  0  0
  8 12  1  0  0  0  0
  8  9  2  0  0  0  0
  9 10  1  0  0  0  0
  9 33  1  0  0  0  0
 10 11  1  0  0  0  0
 11 12  2  0  0  0  0
 11 17  1  0  0  0  0
 12 13  1  0  0  0  0
 13 14  2  0  0  0  0
 13 15  1  0  0  0  0
 15 16  1  0  0  0  0
 16 41  1  0  0  0  0
 16 42  1  0  0  0  0
 16 43  1  0  0  0  0
 17 18  1  0  0  0  0
 17 44  1  0  0  0  0
 18 19  2  0  0  0  0
 18 20  1  0  0  0  0
 20 21  1  0  0  0  0
 20 29  1  0  0  0  0
 20 22  1  0  0  0  0
 22 23  1  0  0  0  0
 22 28  1  0  0  0  0
 22 24  1  0  0  0  0
 24 25  1  0  0  0  0
 24 45  1  0  0  0  0
 24 46  1  0  0  0  0
 25 26  1  0  0  0  0
 25 47  1  0  0  0  0
 25 48  1  0  0  0  0
 26 27  1  0  0  0  0
 26 28  1  0  0  0  0
 26 29  1  0  0  0  0
 28 49  1  0  0  0  0
 28 50  1  0  0  0  0
 29 30  1  0  0  0  0
 29 31  1  0  0  0  0
 31 32  2  0  0  0  0
 31 57  1  0  0  0  0
 33 51  1  0  0  0  0
 33 52  1  0  0  0  0
 33 53  1  0  0  0  0
 34 54  1  0  0  0  0
 34 55  1  0  0  0  0
 34 56  1  0  0  0  0
M  CHG  1  57  -1
M  END
$$$$
ZINC03969752
  -OEChem-08230709463D

 52 53  0     0  0  0  0  0  0999 V2000
    6.0806   -6.0204   -0.6020 C   0  0  0  0  0  0  0  0  0  0  0  0
    4.9208   -7.0180   -0.6189 C   0  0  0  0  0  0  0  0  0  0  0  0
    5.0707   -7.9943    0.5496 C   0  0  0  0  0  0  0  0  0  0  0  0
    4.9350   -7.7944   -1.9372 C   0  0  0  0  0  0  0  0  0  0  0  0
    3.6166   -6.2744   -0.4879 C   0  0  0  0  0  0  0  0  0  0  0  0
    3.6165   -4.8993   -0.3774 C   0  0  0  0  0  0  0  0  0  0  0  0
    2.4075   -4.2120   -0.2566 C   0  0  0  0  0  0  0  0  0  0  0  0
    1.2061   -4.9227   -0.2433 C   0  0  0  0  0  0  0  0  0  0  0  0
    1.2200   -6.2972   -0.3603 C   0  0  0  0  0  0  0  0  0  0  0  0
    2.4219   -6.9723   -0.4793 C   0  0  0  0  0  0  0  0  0  0  0  0
   -0.0763   -7.0656   -0.3524 C   0  0  0  0  0  0  0  0  0  0  0  0
   -0.0824   -8.0433    0.8244 C   0  0  0  0  0  0  0  0  0  0  0  0
   -1.2466   -6.0901   -0.2110 C   0  0  0  0  0  0  0  0  0  0  0  0
   -0.2162   -7.8435   -1.6624 C   0  0  0  0  0  0  0  0  0  0  0  0
    2.3998   -2.7388   -0.1373 C   0  0  0  0  0  0  0  0  0  0  0  0
    3.4478   -2.1230   -0.1442 O   0  0  0  0  0  0  0  0  0  0  0  0
    1.2308   -2.0782   -0.0209 N   0  0  0  0  0  0  0  0  0  0  0  0
    1.2151   -0.6851   -0.0193 C   0  0  0  0  0  0  0  0  0  0  0  0
    2.1410    0.0205   -0.7820 C   0  0  0  0  0  0  0  0  0  0  0  0
    2.1283    1.3968   -0.7828 C   0  0  0  0  0  0  0  0  0  0  0  0
    1.1838    2.0860   -0.0162 C   0  0  0  0  0  0  0  0  0  0  0  0
    0.2554    1.3739    0.7492 C   0  0  0  0  0  0  0  0  0  0  0  0
    0.2738   -0.0023    0.7453 C   0  0  0  0  0  0  0  0  0  0  0  0
    1.1674    3.5605   -0.0141 C   0  0  0  0  0  0  0  0  0  0  0  0
    1.9754    4.1779   -0.6792 O   0  0  0  0  0  0  0  0  0  0  0  0
    6.0705   -5.4673    0.3372 H   0  0  0  0  0  0  0  0  0  0  0  0
    7.0239   -6.5582   -0.6967 H   0  0  0  0  0  0  0  0  0  0  0  0
    5.9738   -5.3249   -1.4344 H   0  0  0  0  0  0  0  0  0  0  0  0
    4.2444   -8.7050    0.5376 H   0  0  0  0  0  0  0  0  0  0  0  0
    6.0140   -8.5322    0.4549 H   0  0  0  0  0  0  0  0  0  0  0  0
    5.0606   -7.4412    1.4888 H   0  0  0  0  0  0  0  0  0  0  0  0
    4.8282   -7.0989   -2.7696 H   0  0  0  0  0  0  0  0  0  0  0  0
    5.8783   -8.3323   -2.0319 H   0  0  0  0  0  0  0  0  0  0  0  0
    4.1087   -8.5052   -1.9492 H   0  0  0  0  0  0  0  0  0  0  0  0
    4.5497   -4.3557   -0.3846 H   0  0  0  0  0  0  0  0  0  0  0  0
    0.2675   -4.3973   -0.1460 H   0  0  0  0  0  0  0  0  0  0  0  0
    2.4275   -8.0487   -0.5661 H   0  0  0  0  0  0  0  0  0  0  0  0
    0.0173   -7.4892    1.7578 H   0  0  0  0  0  0  0  0  0  0  0  0
   -1.0200   -8.5991    0.8302 H   0  0  0  0  0  0  0  0  0  0  0  0
    0.7513   -8.7383    0.7237 H   0  0  0  0  0  0  0  0  0  0  0  0
   -1.2422   -5.3936   -1.0494 H   0  0  0  0  0  0  0  0  0  0  0  0
   -2.1842   -6.6459   -0.2052 H   0  0  0  0  0  0  0  0  0  0  0  0
   -1.1469   -5.5360    0.7223 H   0  0  0  0  0  0  0  0  0  0  0  0
    0.6175   -8.5384   -1.7631 H   0  0  0  0  0  0  0  0  0  0  0  0
   -1.1538   -8.3993   -1.6567 H   0  0  0  0  0  0  0  0  0  0  0  0
   -0.2119   -7.1469   -2.5008 H   0  0  0  0  0  0  0  0  0  0  0  0
    0.4005   -2.5727    0.0619 H   0  0  0  0  0  0  0  0  0  0  0  0
    2.8701   -0.5125   -1.3742 H   0  0  0  0  0  0  0  0  0  0  0  0
    2.8500    1.9438   -1.3714 H   0  0  0  0  0  0  0  0  0  0  0  0
   -0.4756    1.9032    1.3426 H   0  0  0  0  0  0  0  0  0  0  0  0
   -0.4433   -0.5530    1.3361 H   0  0  0  0  0  0  0  0  0  0  0  0
    0.2564    4.2231    0.7253 O   0  5  0  0  0  0  0  0  0  0  0  0
  1  2  1  0  0  0  0
  1 26  1  0  0  0  0
  1 27  1  0  0  0  0
  1 28  1  0  0  0  0
  2  3  1  0  0  0  0
  2  4  1  0  0  0  0
  2  5  1  0  0  0  0
  3 29  1  0  0  0  0
  3 30  1  0  0  0  0
  3 31  1  0  0  0  0
  4 32  1  0  0  0  0
  4 33  1  0  0  0  0
  4 34  1  0  0  0  0
  5 10  2  0  0  0  0
  5  6  1  0  0  0  0
  6  7  2  0  0  0  0
  6 35  1  0  0  0  0
  7  8  1  0  0  0  0
  7 15  1  0  0  0  0
  8  9  2  0  0  0  0
  8 36  1  0  0  0  0
  9 10  1  0  0  0  0
  9 11  1  0  0  0  0
 10 37  1  0  0  0  0
 11 12  1  0  0  0  0
 11 13  1  0  0  0  0
 11 14  1  0  0  0  0
 12 38  1  0  0  0  0
 12 39  1  0  0  0  0
 12 40  1  0  0  0  0
 13 41  1  0  0  0  0
 13 42  1  0  0  0  0
 13 43  1  0  0  0  0
 14 44  1  0  0  0  0
 14 45  1  0  0  0  0
 14 46  1  0  0  0  0
 15 16  2  0  0  0  0
 15 17  1  0  0  0  0
 17 18  1  0  0  0  0
 17 47  1  0  0  0  0
 18 23  2  0  0  0  0
 18 19  1  0  0  0  0
 19 20  2  0  0  0  0
 19 48  1  0  0  0  0
 20 21  1  0  0  0  0
 20 49  1  0  0  0  0
 21 22  2  0  0  0  0
 21 24  1  0  0  0  0
 22 23  1  0  0  0  0
 22 50  1  0  0  0  0
 23 51  1  0  0  0  0
 24 25  2  0  0  0  0
 24 52  1  0  0  0  0
M  CHG  1  52  -1
M  END
$$$$
ZINC03969792
  -OEChem-08230709463D

 52 54  0     0  0  0  0  0  0999 V2000
    8.6023   -2.2092    4.0010 C   0  0  0  0  0  0  0  0  0  0  0  0
    8.4213   -1.0080    3.5105 C   0  0  0  0  0  0  0  0  0  0  0  0
    8.0985   -0.8316    2.0491 C   0  0  0  0  0  0  0  0  0  0  0  0
    6.8256   -0.0373    1.9082 C   0  0  0  0  0  0  0  0  0  0  0  0
    5.6215   -0.6888    1.7581 C   0  0  0  0  0  0  0  0  0  0  0  0
    4.4420    0.0486    1.6271 C   0  0  0  0  0  0  0  0  0  0  0  0
    4.4900    1.4452    1.6432 C   0  0  0  0  0  0  0  0  0  0  0  0
    5.6970    2.0889    1.7999 C   0  0  0  0  0  0  0  0  0  0  0  0
    6.8684    1.3516    1.9295 C   0  0  0  0  0  0  0  0  0  0  0  0
    8.0568    1.9899    2.0776 O   0  0  0  0  0  0  0  0  0  0  0  0
    8.0287    3.4186    2.0910 C   0  0  0  0  0  0  0  0  0  0  0  0
    9.4295    3.9470    2.2629 C   0  0  0  0  0  0  0  0  0  0  0  0
    9.9266    4.1799    3.5331 C   0  0  0  0  0  0  0  0  0  0  0  0
   11.2097    4.6590    3.6979 C   0  0  0  0  0  0  0  0  0  0  0  0
   12.0034    4.9189    2.5789 C   0  0  0  0  0  0  0  0  0  0  0  0
   11.4936    4.6865    1.3000 C   0  0  0  0  0  0  0  0  0  0  0  0
   10.2107    4.2023    1.1498 C   0  0  0  0  0  0  0  0  0  0  0  0
   13.3766    5.4368    2.7475 C   0  0  0  0  0  0  0  0  0  0  0  0
   14.0649    5.6616    1.7722 O   0  0  0  0  0  0  0  0  0  0  0  0
    3.1494   -0.6456    1.4661 C   0  0  0  0  0  0  0  0  0  0  0  0
    2.4018   -0.3356    0.5588 O   0  0  0  0  0  0  0  0  0  0  0  0
    2.7979   -1.6231    2.3248 N   0  0  0  0  0  0  0  0  0  0  0  0
    1.4804   -2.2663    2.2282 C   0  0  0  0  0  0  0  0  0  0  0  0
    0.7909   -2.1855    3.5937 C   0  0  0  0  0  0  0  0  0  0  0  0
    1.7081   -2.7884    4.6603 C   0  0  0  0  0  0  0  0  0  0  0  0
    3.0100   -1.9868    4.7283 C   0  0  0  0  0  0  0  0  0  0  0  0
    3.7246   -2.0654    3.3756 C   0  0  0  0  0  0  0  0  0  0  0  0
    8.8337   -2.3356    5.0483 H   0  0  0  0  0  0  0  0  0  0  0  0
    8.5201   -3.0730    3.3580 H   0  0  0  0  0  0  0  0  0  0  0  0
    8.5035   -0.1442    4.1535 H   0  0  0  0  0  0  0  0  0  0  0  0
    7.9699   -1.8094    1.5848 H   0  0  0  0  0  0  0  0  0  0  0  0
    8.9142   -0.3008    1.5583 H   0  0  0  0  0  0  0  0  0  0  0  0
    5.5891   -1.7681    1.7413 H   0  0  0  0  0  0  0  0  0  0  0  0
    3.5810    2.0187    1.5374 H   0  0  0  0  0  0  0  0  0  0  0  0
    5.7344    3.1681    1.8169 H   0  0  0  0  0  0  0  0  0  0  0  0
    7.6160    3.7826    1.1501 H   0  0  0  0  0  0  0  0  0  0  0  0
    7.4068    3.7620    2.9176 H   0  0  0  0  0  0  0  0  0  0  0  0
    9.3101    3.9823    4.3975 H   0  0  0  0  0  0  0  0  0  0  0  0
   11.5980    4.8361    4.6899 H   0  0  0  0  0  0  0  0  0  0  0  0
   12.1025    4.8851    0.4303 H   0  0  0  0  0  0  0  0  0  0  0  0
    9.8153    4.0218    0.1612 H   0  0  0  0  0  0  0  0  0  0  0  0
    1.6039   -3.3109    1.9424 H   0  0  0  0  0  0  0  0  0  0  0  0
    0.8745   -1.7526    1.4819 H   0  0  0  0  0  0  0  0  0  0  0  0
   -0.1455   -2.7425    3.5620 H   0  0  0  0  0  0  0  0  0  0  0  0
    0.5865   -1.1428    3.8369 H   0  0  0  0  0  0  0  0  0  0  0  0
    1.2097   -2.7545    5.6291 H   0  0  0  0  0  0  0  0  0  0  0  0
    1.9321   -3.8237    4.4034 H   0  0  0  0  0  0  0  0  0  0  0  0
    2.7846   -0.9460    4.9608 H   0  0  0  0  0  0  0  0  0  0  0  0
    3.6530   -2.4024    5.5042 H   0  0  0  0  0  0  0  0  0  0  0  0
    4.0311   -3.0936    3.1835 H   0  0  0  0  0  0  0  0  0  0  0  0
    4.6006   -1.4168    3.3869 H   0  0  0  0  0  0  0  0  0  0  0  0
   13.8654    5.6599    3.9828 O   0  5  0  0  0  0  0  0  0  0  0  0
  1  2  2  0  0  0  0
  1 28  1  0  0  0  0
  1 29  1  0  0  0  0
  2  3  1  0  0  0  0
  2 30  1  0  0  0  0
  3  4  1  0  0  0  0
  3 31  1  0  0  0  0
  3 32  1  0  0  0  0
  4  9  2  0  0  0  0
  4  5  1  0  0  0  0
  5  6  2  0  0  0  0
  5 33  1  0  0  0  0
  6  7  1  0  0  0  0
  6 20  1  0  0  0  0
  7  8  2  0  0  0  0
  7 34  1  0  0  0  0
  8  9  1  0  0  0  0
  8 35  1  0  0  0  0
  9 10  1  0  0  0  0
 10 11  1  0  0  0  0
 11 12  1  0  0  0  0
 11 36  1  0  0  0  0
 11 37  1  0  0  0  0
 12 17  2  0  0  0  0
 12 13  1  0  0  0  0
 13 14  2  0  0  0  0
 13 38  1  0  0  0  0
 14 15  1  0  0  0  0
 14 39  1  0  0  0  0
 15 16  2  0  0  0  0
 15 18  1  0  0  0  0
 16 17  1  0  0  0  0
 16 40  1  0  0  0  0
 17 41  1  0  0  0  0
 18 19  2  0  0  0  0
 18 52  1  0  0  0  0
 20 21  2  0  0  0  0
 20 22  1  0  0  0  0
 22 27  1  0  0  0  0
 22 23  1  0  0  0  0
 23 24  1  0  0  0  0
 23 42  1  0  0  0  0
 23 43  1  0  0  0  0
 24 25  1  0  0  0  0
 24 44  1  0  0  0  0
 24 45  1  0  0  0  0
 25 26  1  0  0  0  0
 25 46  1  0  0  0  0
 25 47  1  0  0  0  0
 26 27  1  0  0  0  0
 26 48  1  0  0  0  0
 26 49  1  0  0  0  0
 27 50  1  0  0  0  0
 27 51  1  0  0  0  0
M  CHG  1  52  -1
M  END
$$$$
ZINC03969851
  -OEChem-08230709463D

 50 52  0     0  0  0  0  0  0999 V2000
   -4.9593    4.3061    0.0498 C   0  0  0  0  0  0  0  0  0  0  0  0
   -3.6655    3.5334    0.0391 C   0  0  0  0  0  0  0  0  0  0  0  0
   -3.4741    2.5230   -0.8862 C   0  0  0  0  0  0  0  0  0  0  0  0
   -2.2917    1.8117   -0.9006 C   0  0  0  0  0  0  0  0  0  0  0  0
   -1.2887    2.1135    0.0197 C   0  0  0  0  0  0  0  0  0  0  0  0
   -1.4895    3.1293    0.9533 C   0  0  0  0  0  0  0  0  0  0  0  0
   -2.6742    3.8370    0.9549 C   0  0  0  0  0  0  0  0  0  0  0  0
   -0.0163    1.3532    0.0095 C   0  0  0  0  0  0  0  0  0  0  0  0
    0.0021   -0.0041    0.0020 C   0  0  0  0  0  0  0  0  0  0  0  0
    1.7401   -0.3904   -0.0167 S   0  0  0  0  0  0  0  0  0  0  0  0
    2.3972    1.2111   -0.0143 C   0  0  0  0  0  0  0  0  0  0  0  0
    1.2705    2.0232    0.0008 C   0  0  0  0  0  0  0  0  0  0  0  0
    1.3761    3.4820    0.0071 C   0  0  0  0  0  0  0  0  0  0  0  0
    1.4299    4.0833    1.0633 O   0  0  0  0  0  0  0  0  0  0  0  0
    3.7283    1.5917   -0.0257 N   0  0  0  0  0  0  0  0  0  0  0  0
    4.6970    0.6547   -0.0402 C   0  0  0  0  0  0  0  0  0  0  0  0
    4.4019   -0.5248   -0.0434 O   0  0  0  0  0  0  0  0  0  0  0  0
    6.1157    1.0603   -0.0523 C   0  0  0  0  0  0  0  0  0  0  0  0
    6.4561    2.4155   -0.0544 C   0  0  0  0  0  0  0  0  0  0  0  0
    7.7859    2.7927   -0.0599 C   0  0  0  0  0  0  0  0  0  0  0  0
    8.7856    1.8238   -0.0749 C   0  0  0  0  0  0  0  0  0  0  0  0
    8.4491    0.4727   -0.0786 C   0  0  0  0  0  0  0  0  0  0  0  0
    7.1209    0.0900   -0.0674 C   0  0  0  0  0  0  0  0  0  0  0  0
    9.4280   -0.4713   -0.0938 O   0  0  0  0  0  0  0  0  0  0  0  0
    9.0112   -1.8382   -0.0972 C   0  0  0  0  0  0  0  0  0  0  0  0
   10.0922    2.1973   -0.0855 O   0  0  0  0  0  0  0  0  0  0  0  0
   10.7037    2.3822   -1.3638 C   0  0  0  0  0  0  0  0  0  0  0  0
    8.1180    4.1116   -0.0563 O   0  0  0  0  0  0  0  0  0  0  0  0
    7.0418    5.0516   -0.0407 C   0  0  0  0  0  0  0  0  0  0  0  0
   -5.6716    3.8130    0.7114 H   0  0  0  0  0  0  0  0  0  0  0  0
   -4.7743    5.3196    0.4057 H   0  0  0  0  0  0  0  0  0  0  0  0
   -5.3679    4.3445   -0.9600 H   0  0  0  0  0  0  0  0  0  0  0  0
   -4.2518    2.2902   -1.5986 H   0  0  0  0  0  0  0  0  0  0  0  0
   -2.1436    1.0227   -1.6229 H   0  0  0  0  0  0  0  0  0  0  0  0
   -0.7180    3.3642    1.6717 H   0  0  0  0  0  0  0  0  0  0  0  0
   -2.8292    4.6268    1.6750 H   0  0  0  0  0  0  0  0  0  0  0  0
   -0.8358   -0.6856    0.0067 H   0  0  0  0  0  0  0  0  0  0  0  0
    3.9637    2.5327   -0.0231 H   0  0  0  0  0  0  0  0  0  0  0  0
    5.6810    3.1675   -0.0473 H   0  0  0  0  0  0  0  0  0  0  0  0
    6.8604   -0.9581   -0.0699 H   0  0  0  0  0  0  0  0  0  0  0  0
    8.4228   -2.0408    0.7977 H   0  0  0  0  0  0  0  0  0  0  0  0
    8.4048   -2.0309   -0.9822 H   0  0  0  0  0  0  0  0  0  0  0  0
    9.8882   -2.4854   -0.1096 H   0  0  0  0  0  0  0  0  0  0  0  0
   11.7440    2.6785   -1.2294 H   0  0  0  0  0  0  0  0  0  0  0  0
   10.6614    1.4488   -1.9252 H   0  0  0  0  0  0  0  0  0  0  0  0
   10.1721    3.1602   -1.9117 H   0  0  0  0  0  0  0  0  0  0  0  0
    6.4213    4.9082   -0.9253 H   0  0  0  0  0  0  0  0  0  0  0  0
    6.4390    4.8989    0.8546 H   0  0  0  0  0  0  0  0  0  0  0  0
    7.4441    6.0646   -0.0394 H   0  0  0  0  0  0  0  0  0  0  0  0
    1.4138    4.1606   -1.1581 O   0  5  0  0  0  0  0  0  0  0  0  0
  1  2  1  0  0  0  0
  1 30  1  0  0  0  0
  1 31  1  0  0  0  0
  1 32  1  0  0  0  0
  2  7  2  0  0  0  0
  2  3  1  0  0  0  0
  3  4  2  0  0  0  0
  3 33  1  0  0  0  0
  4  5  1  0  0  0  0
  4 34  1  0  0  0  0
  5  6  2  0  0  0  0
  5  8  1  0  0  0  0
  6  7  1  0  0  0  0
  6 35  1  0  0  0  0
  7 36  1  0  0  0  0
  8 12  1  0  0  0  0
  8  9  2  0  0  0  0
  9 10  1  0  0  0  0
  9 37  1  0  0  0  0
 10 11  1  0  0  0  0
 11 12  2  0  0  0  0
 11 15  1  0  0  0  0
 12 13  1  0  0  0  0
 13 14  2  0  0  0  0
 13 50  1  0  0  0  0
 15 16  1  0  0  0  0
 15 38  1  0  0  0  0
 16 17  2  0  0  0  0
 16 18  1  0  0  0  0
 18 23  2  0  0  0  0
 18 19  1  0  0  0  0
 19 20  2  0  0  0  0
 19 39  1  0  0  0  0
 20 21  1  0  0  0  0
 20 28  1  0  0  0  0
 21 22  2  0  0  0  0
 21 26  1  0  0  0  0
 22 23  1  0  0  0  0
 22 24  1  0  0  0  0
 23 40  1  0  0  0  0
 24 25  1  0  0  0  0
 25 41  1  0  0  0  0
 25 42  1  0  0  0  0
 25 43  1  0  0  0  0
 26 27  1  0  0  0  0
 27 44  1  0  0  0  0
 27 45  1  0  0  0  0
 27 46  1  0  0  0  0
 28 29  1  0  0  0  0
 29 47  1  0  0  0  0
 29 48  1  0  0  0  0
 29 49  1  0  0  0  0
M  CHG  1  50  -1
M  END
$$$$
ZINC03970093
  -OEChem-08230709463D

 51 52  0     1  0  0  0  0  0999 V2000
   -4.3482    4.8676   -1.3755 C   0  0  0  0  0  0  0  0  0  0  0  0
   -3.0119    4.1227   -1.3913 C   0  0  0  0  0  0  0  0  0  0  0  0
   -2.5535    3.8670    0.0459 C   0  0  0  0  0  0  0  0  0  0  0  0
   -1.2372    3.1333    0.0303 C   0  0  0  0  0  0  0  0  0  0  0  0
   -1.2179    1.7508    0.0173 C   0  0  0  0  0  0  0  0  0  0  0  0
   -0.0126    1.0758    0.0080 C   0  0  0  0  0  0  0  0  0  0  0  0
    1.1790    1.7863    0.0004 C   0  0  0  0  0  0  0  0  0  0  0  0
    1.1568    3.1735    0.0081 C   0  0  0  0  0  0  0  0  0  0  0  0
   -0.0511    3.8437    0.0233 C   0  0  0  0  0  0  0  0  0  0  0  0
    2.3659    1.1247   -0.0141 O   0  0  0  0  0  0  0  0  0  0  0  0
    3.5525    1.9209   -0.0212 C   0  0  0  0  0  0  0  0  0  0  0  0
    4.7612    1.0210   -0.0371 C   0  0  0  0  0  0  0  0  0  0  0  0
    4.6204   -0.1836   -0.0419 O   0  0  0  0  0  0  0  0  0  0  0  0
    5.9987    1.5549   -0.0459 N   0  0  0  0  0  0  0  0  0  0  0  0
    7.1224    0.7183   -0.0607 N   0  0  0  0  0  0  0  0  0  0  0  0
    8.3599    1.2522   -0.0696 C   0  0  0  0  0  0  0  0  0  0  0  0
    8.5007    2.4568   -0.0648 O   0  0  0  0  0  0  0  0  0  0  0  0
    9.5686    0.3523   -0.0855 C   0  0  2  0  0  0  0  0  0  0  0  0
    9.5449   -0.2723   -0.9785 H   0  0  0  0  0  0  0  0  0  0  0  0
    9.5587   -0.5371    1.1594 C   0  0  0  0  0  0  0  0  0  0  0  0
   10.7859   -1.4507    1.1432 C   0  0  0  0  0  0  0  0  0  0  0  0
   12.0563   -0.5982    1.1357 C   0  0  0  0  0  0  0  0  0  0  0  0
   12.0663    0.2912   -0.1092 C   0  0  0  0  0  0  0  0  0  0  0  0
   10.8391    1.2048   -0.0931 C   0  0  1  0  0  0  0  0  0  0  0  0
   10.8628    1.8294    0.7999 H   0  0  0  0  0  0  0  0  0  0  0  0
   10.8489    2.0809   -1.3193 C   0  0  0  0  0  0  0  0  0  0  0  0
    9.9336    2.0287   -2.1063 O   0  0  0  0  0  0  0  0  0  0  0  0
   -5.0942    4.2645   -0.8580 H   0  0  0  0  0  0  0  0  0  0  0  0
   -4.2275    5.8192   -0.8579 H   0  0  0  0  0  0  0  0  0  0  0  0
   -4.6747    5.0497   -2.3993 H   0  0  0  0  0  0  0  0  0  0  0  0
   -2.2658    4.7257   -1.9088 H   0  0  0  0  0  0  0  0  0  0  0  0
   -3.1325    3.1710   -1.9089 H   0  0  0  0  0  0  0  0  0  0  0  0
   -3.2995    3.2639    0.5634 H   0  0  0  0  0  0  0  0  0  0  0  0
   -2.4328    4.8187    0.5635 H   0  0  0  0  0  0  0  0  0  0  0  0
   -2.1457    1.1981    0.0187 H   0  0  0  0  0  0  0  0  0  0  0  0
    0.0021   -0.0041    0.0020 H   0  0  0  0  0  0  0  0  0  0  0  0
    2.0830    3.7288    0.0019 H   0  0  0  0  0  0  0  0  0  0  0  0
   -0.0689    4.9236    0.0293 H   0  0  0  0  0  0  0  0  0  0  0  0
    3.5596    2.5546   -0.9080 H   0  0  0  0  0  0  0  0  0  0  0  0
    3.5762    2.5455    0.8718 H   0  0  0  0  0  0  0  0  0  0  0  0
    6.1113    2.5183   -0.0421 H   0  0  0  0  0  0  0  0  0  0  0  0
    7.0098   -0.2451   -0.0646 H   0  0  0  0  0  0  0  0  0  0  0  0
    9.5825    0.0875    2.0524 H   0  0  0  0  0  0  0  0  0  0  0  0
    8.6536   -1.1445    1.1648 H   0  0  0  0  0  0  0  0  0  0  0  0
   10.7621   -2.0753    0.2503 H   0  0  0  0  0  0  0  0  0  0  0  0
   10.7788   -2.0844    2.0301 H   0  0  0  0  0  0  0  0  0  0  0  0
   12.9306   -1.2491    1.1242 H   0  0  0  0  0  0  0  0  0  0  0  0
   12.0801    0.0264    2.0286 H   0  0  0  0  0  0  0  0  0  0  0  0
   12.0425   -0.3334   -1.0022 H   0  0  0  0  0  0  0  0  0  0  0  0
   12.9714    0.8986   -0.1146 H   0  0  0  0  0  0  0  0  0  0  0  0
   11.8744    2.9191   -1.5370 O   0  5  0  0  0  0  0  0  0  0  0  0
  1  2  1  0  0  0  0
  1 28  1  0  0  0  0
  1 29  1  0  0  0  0
  1 30  1  0  0  0  0
  2  3  1  0  0  0  0
  2 31  1  0  0  0  0
  2 32  1  0  0  0  0
  3  4  1  0  0  0  0
  3 33  1  0  0  0  0
  3 34  1  0  0  0  0
  4  9  2  0  0  0  0
  4  5  1  0  0  0  0
  5  6  2  0  0  0  0
  5 35  1  0  0  0  0
  6  7  1  0  0  0  0
  6 36  1  0  0  0  0
  7  8  2  0  0  0  0
  7 10  1  0  0  0  0
  8  9  1  0  0  0  0
  8 37  1  0  0  0  0
  9 38  1  0  0  0  0
 10 11  1  0  0  0  0
 11 12  1  0  0  0  0
 11 39  1  0  0  0  0
 11 40  1  0  0  0  0
 12 13  2  0  0  0  0
 12 14  1  0  0  0  0
 14 15  1  0  0  0  0
 14 41  1  0  0  0  0
 15 16  1  0  0  0  0
 15 42  1  0  0  0  0
 16 17  2  0  0  0  0
 16 18  1  0  0  0  0
 18 19  1  0  0  0  0
 18 24  1  0  0  0  0
 18 20  1  0  0  0  0
 20 21  1  0  0  0  0
 20 43  1  0  0  0  0
 20 44  1  0  0  0  0
 21 22  1  0  0  0  0
 21 45  1  0  0  0  0
 21 46  1  0  0  0  0
 22 23  1  0  0  0  0
 22 47  1  0  0  0  0
 22 48  1  0  0  0  0
 23 24  1  0  0  0  0
 23 49  1  0  0  0  0
 23 50  1  0  0  0  0
 24 25  1  0  0  0  0
 24 26  1  0  0  0  0
 26 27  2  0  0  0  0
 26 51  1  0  0  0  0
M  CHG  1  51  -1
M  END
$$$$
ZINC03970094
  -OEChem-08230709463D

 51 52  0     1  0  0  0  0  0999 V2000
    9.4143    4.1026   -1.5082 C   0  0  0  0  0  0  0  0  0  0  0  0
    8.0086    3.4986   -1.4980 C   0  0  0  0  0  0  0  0  0  0  0  0
    7.5538    3.2895   -0.0523 C   0  0  0  0  0  0  0  0  0  0  0  0
    6.1692    2.6946   -0.0423 C   0  0  0  0  0  0  0  0  0  0  0  0
    6.0080    1.3214   -0.0482 C   0  0  0  0  0  0  0  0  0  0  0  0
    4.7399    0.7736   -0.0390 C   0  0  0  0  0  0  0  0  0  0  0  0
    3.6275    1.6026   -0.0240 C   0  0  0  0  0  0  0  0  0  0  0  0
    3.7919    2.9801   -0.0239 C   0  0  0  0  0  0  0  0  0  0  0  0
    5.0622    3.5229   -0.0268 C   0  0  0  0  0  0  0  0  0  0  0  0
    2.3789    1.0661   -0.0149 O   0  0  0  0  0  0  0  0  0  0  0  0
    1.2803    1.9798    0.0005 C   0  0  0  0  0  0  0  0  0  0  0  0
   -0.0144    1.2086    0.0087 C   0  0  0  0  0  0  0  0  0  0  0  0
    0.0021   -0.0041    0.0020 O   0  0  0  0  0  0  0  0  0  0  0  0
   -1.1906    1.8666    0.0178 N   0  0  0  0  0  0  0  0  0  0  0  0
   -2.3943    1.1496    0.0197 N   0  0  0  0  0  0  0  0  0  0  0  0
   -3.5705    1.8076    0.0288 C   0  0  0  0  0  0  0  0  0  0  0  0
   -3.5869    3.0203    0.0355 O   0  0  0  0  0  0  0  0  0  0  0  0
   -4.8652    1.0364    0.0308 C   0  0  1  0  0  0  0  0  0  0  0  0
   -4.9187    0.4139   -0.8624 H   0  0  0  0  0  0  0  0  0  0  0  0
   -4.9284    0.1490    1.2755 C   0  0  0  0  0  0  0  0  0  0  0  0
   -6.2429   -0.6339    1.2775 C   0  0  0  0  0  0  0  0  0  0  0  0
   -7.4192    0.3444    1.2884 C   0  0  0  0  0  0  0  0  0  0  0  0
   -7.3560    1.2318    0.0436 C   0  0  0  0  0  0  0  0  0  0  0  0
   -6.0415    2.0148    0.0417 C   0  0  2  0  0  0  0  0  0  0  0  0
   -5.9881    2.6373    0.9348 H   0  0  0  0  0  0  0  0  0  0  0  0
   -5.9793    2.8888   -1.1844 C   0  0  0  0  0  0  0  0  0  0  0  0
   -5.0858    2.7441   -1.9848 O   0  0  0  0  0  0  0  0  0  0  0  0
   10.1043    3.4256   -1.0045 H   0  0  0  0  0  0  0  0  0  0  0  0
    9.7384    4.2516   -2.5382 H   0  0  0  0  0  0  0  0  0  0  0  0
    9.4018    5.0610   -0.9890 H   0  0  0  0  0  0  0  0  0  0  0  0
    8.0212    2.5403   -2.0172 H   0  0  0  0  0  0  0  0  0  0  0  0
    7.3186    4.1757   -2.0017 H   0  0  0  0  0  0  0  0  0  0  0  0
    7.5412    4.2479    0.4669 H   0  0  0  0  0  0  0  0  0  0  0  0
    8.2438    2.6125    0.4514 H   0  0  0  0  0  0  0  0  0  0  0  0
    6.8742    0.6765   -0.0603 H   0  0  0  0  0  0  0  0  0  0  0  0
    4.6144   -0.2991   -0.0440 H   0  0  0  0  0  0  0  0  0  0  0  0
    2.9275    3.6275   -0.0167 H   0  0  0  0  0  0  0  0  0  0  0  0
    5.1908    4.5953   -0.0222 H   0  0  0  0  0  0  0  0  0  0  0  0
    1.3211    2.6120   -0.8866 H   0  0  0  0  0  0  0  0  0  0  0  0
    1.3381    2.6024    0.8933 H   0  0  0  0  0  0  0  0  0  0  0  0
   -1.2037    2.8365    0.0232 H   0  0  0  0  0  0  0  0  0  0  0  0
   -2.3811    0.1797    0.0143 H   0  0  0  0  0  0  0  0  0  0  0  0
   -4.0904   -0.5480    1.2677 H   0  0  0  0  0  0  0  0  0  0  0  0
   -4.8750    0.7716    2.1686 H   0  0  0  0  0  0  0  0  0  0  0  0
   -6.2964   -1.2565    0.3843 H   0  0  0  0  0  0  0  0  0  0  0  0
   -6.2879   -1.2661    2.1643 H   0  0  0  0  0  0  0  0  0  0  0  0
   -8.3557   -0.2134    1.2898 H   0  0  0  0  0  0  0  0  0  0  0  0
   -7.3657    0.9670    2.1815 H   0  0  0  0  0  0  0  0  0  0  0  0
   -7.4095    0.6093   -0.8495 H   0  0  0  0  0  0  0  0  0  0  0  0
   -8.1940    1.9288    0.0514 H   0  0  0  0  0  0  0  0  0  0  0  0
   -6.9165    3.8281   -1.3873 O   0  5  0  0  0  0  0  0  0  0  0  0
  1  2  1  0  0  0  0
  1 28  1  0  0  0  0
  1 29  1  0  0  0  0
  1 30  1  0  0  0  0
  2  3  1  0  0  0  0
  2 31  1  0  0  0  0
  2 32  1  0  0  0  0
  3  4  1  0  0  0  0
  3 33  1  0  0  0  0
  3 34  1  0  0  0  0
  4  9  2  0  0  0  0
  4  5  1  0  0  0  0
  5  6  2  0  0  0  0
  5 35  1  0  0  0  0
  6  7  1  0  0  0  0
  6 36  1  0  0  0  0
  7  8  2  0  0  0  0
  7 10  1  0  0  0  0
  8  9  1  0  0  0  0
  8 37  1  0  0  0  0
  9 38  1  0  0  0  0
 10 11  1  0  0  0  0
 11 12  1  0  0  0  0
 11 39  1  0  0  0  0
 11 40  1  0  0  0  0
 12 13  2  0  0  0  0
 12 14  1  0  0  0  0
 14 15  1  0  0  0  0
 14 41  1  0  0  0  0
 15 16  1  0  0  0  0
 15 42  1  0  0  0  0
 16 17  2  0  0  0  0
 16 18  1  0  0  0  0
 18 19  1  0  0  0  0
 18 24  1  0  0  0  0
 18 20  1  0  0  0  0
 20 21  1  0  0  0  0
 20 43  1  0  0  0  0
 20 44  1  0  0  0  0
 21 22  1  0  0  0  0
 21 45  1  0  0  0  0
 21 46  1  0  0  0  0
 22 23  1  0  0  0  0
 22 47  1  0  0  0  0
 22 48  1  0  0  0  0
 23 24  1  0  0  0  0
 23 49  1  0  0  0  0
 23 50  1  0  0  0  0
 24 25  1  0  0  0  0
 24 26  1  0  0  0  0
 26 27  2  0  0  0  0
 26 51  1  0  0  0  0
M  CHG  1  51  -1
M  END
$$$$
ZINC03971816
  -OEChem-08230709463D

 49 51  0     0  0  0  0  0  0999 V2000
   -0.7688    1.9528   -1.2264 C   0  0  0  0  0  0  0  0  0  0  0  0
   -0.0177    1.4547    0.0100 C   0  0  0  0  0  0  0  0  0  0  0  0
    1.3989    2.0270   -0.0004 C   0  0  0  0  0  0  0  0  0  0  0  0
    2.1962    1.3722   -1.0982 C   0  0  0  0  0  0  0  0  0  0  0  0
    3.1656    2.0648   -1.7855 C   0  0  0  0  0  0  0  0  0  0  0  0
    3.8838    1.4342   -2.7933 C   0  0  0  0  0  0  0  0  0  0  0  0
    3.6267    0.1014   -3.1114 C   0  0  0  0  0  0  0  0  0  0  0  0
    2.6530   -0.5999   -2.4243 C   0  0  0  0  0  0  0  0  0  0  0  0
    1.9334    0.0342   -1.4126 C   0  0  0  0  0  0  0  0  0  0  0  0
    0.8887   -0.6769   -0.6539 C   0  0  0  0  0  0  0  0  0  0  0  0
    0.0021   -0.0041    0.0020 N   0  0  0  0  0  0  0  0  0  0  0  0
    0.8551   -2.1835   -0.6431 C   0  0  0  0  0  0  0  0  0  0  0  0
   -0.5341   -2.7488    0.3700 S   0  0  0  0  0  0  0  0  0  0  0  0
   -0.3390   -4.4928    0.2110 C   0  0  0  0  0  0  0  0  0  0  0  0
    0.6952   -5.0134   -0.5590 C   0  0  0  0  0  0  0  0  0  0  0  0
    0.8484   -6.3787   -0.6777 C   0  0  0  0  0  0  0  0  0  0  0  0
   -0.0304   -7.2423   -0.0415 C   0  0  0  0  0  0  0  0  0  0  0  0
   -1.0642   -6.7467    0.7213 C   0  0  0  0  0  0  0  0  0  0  0  0
   -1.2310   -5.3652    0.8568 C   0  0  0  0  0  0  0  0  0  0  0  0
   -2.3344   -4.8282    1.6705 C   0  0  0  0  0  0  0  0  0  0  0  0
   -2.4759   -3.6266    1.7852 O   0  0  0  0  0  0  0  0  0  0  0  0
    4.3337   -0.5095   -4.0996 O   0  0  0  0  0  0  0  0  0  0  0  0
    4.0185   -1.8762   -4.3731 C   0  0  0  0  0  0  0  0  0  0  0  0
    4.8411    2.1189   -3.4717 O   0  0  0  0  0  0  0  0  0  0  0  0
    5.0542    3.4809   -3.0953 C   0  0  0  0  0  0  0  0  0  0  0  0
   -0.7450    1.9394    1.2658 C   0  0  0  0  0  0  0  0  0  0  0  0
   -1.7901    1.5724   -1.2088 H   0  0  0  0  0  0  0  0  0  0  0  0
   -0.7869    3.0427   -1.2259 H   0  0  0  0  0  0  0  0  0  0  0  0
   -0.2645    1.5982   -2.1252 H   0  0  0  0  0  0  0  0  0  0  0  0
    1.3552    3.1021   -0.1747 H   0  0  0  0  0  0  0  0  0  0  0  0
    1.8761    1.8336    0.9603 H   0  0  0  0  0  0  0  0  0  0  0  0
    3.3677    3.0974   -1.5422 H   0  0  0  0  0  0  0  0  0  0  0  0
    2.4517   -1.6323   -2.6693 H   0  0  0  0  0  0  0  0  0  0  0  0
    0.7450   -2.5212   -1.5779 H   0  0  0  0  0  0  0  0  0  0  0  0
    1.7875   -2.5647   -0.2265 H   0  0  0  0  0  0  0  0  0  0  0  0
    1.3814   -4.3478   -1.0615 H   0  0  0  0  0  0  0  0  0  0  0  0
    1.6555   -6.7780   -1.2739 H   0  0  0  0  0  0  0  0  0  0  0  0
    0.0965   -8.3098   -0.1452 H   0  0  0  0  0  0  0  0  0  0  0  0
   -1.7456   -7.4244    1.2141 H   0  0  0  0  0  0  0  0  0  0  0  0
    4.1891   -2.4745   -3.4782 H   0  0  0  0  0  0  0  0  0  0  0  0
    2.9725   -1.9556   -4.6693 H   0  0  0  0  0  0  0  0  0  0  0  0
    4.6535   -2.2409   -5.1805 H   0  0  0  0  0  0  0  0  0  0  0  0
    4.1331    4.0458   -3.2385 H   0  0  0  0  0  0  0  0  0  0  0  0
    5.3490    3.5263   -2.0469 H   0  0  0  0  0  0  0  0  0  0  0  0
    5.8431    3.9095   -3.7135 H   0  0  0  0  0  0  0  0  0  0  0  0
   -0.2236    1.5752    2.1510 H   0  0  0  0  0  0  0  0  0  0  0  0
   -0.7630    3.0292    1.2775 H   0  0  0  0  0  0  0  0  0  0  0  0
   -1.7665    1.5592    1.2636 H   0  0  0  0  0  0  0  0  0  0  0  0
   -3.1875   -5.6692    2.2881 O   0  5  0  0  0  0  0  0  0  0  0  0
  1  2  1  0  0  0  0
  1 27  1  0  0  0  0
  1 28  1  0  0  0  0
  1 29  1  0  0  0  0
  2 11  1  0  0  0  0
  2  3  1  0  0  0  0
  2 26  1  0  0  0  0
  3  4  1  0  0  0  0
  3 30  1  0  0  0  0
  3 31  1  0  0  0  0
  4  9  2  0  0  0  0
  4  5  1  0  0  0  0
  5  6  2  0  0  0  0
  5 32  1  0  0  0  0
  6  7  1  0  0  0  0
  6 24  1  0  0  0  0
  7  8  2  0  0  0  0
  7 22  1  0  0  0  0
  8  9  1  0  0  0  0
  8 33  1  0  0  0  0
  9 10  1  0  0  0  0
 10 11  2  0  0  0  0
 10 12  1  0  0  0  0
 12 13  1  0  0  0  0
 12 34  1  0  0  0  0
 12 35  1  0  0  0  0
 13 14  1  0  0  0  0
 14 19  2  0  0  0  0
 14 15  1  0  0  0  0
 15 16  2  0  0  0  0
 15 36  1  0  0  0  0
 16 17  1  0  0  0  0
 16 37  1  0  0  0  0
 17 18  2  0  0  0  0
 17 38  1  0  0  0  0
 18 19  1  0  0  0  0
 18 39  1  0  0  0  0
 19 20  1  0  0  0  0
 20 21  2  0  0  0  0
 20 49  1  0  0  0  0
 22 23  1  0  0  0  0
 23 40  1  0  0  0  0
 23 41  1  0  0  0  0
 23 42  1  0  0  0  0
 24 25  1  0  0  0  0
 25 43  1  0  0  0  0
 25 44  1  0  0  0  0
 25 45  1  0  0  0  0
 26 46  1  0  0  0  0
 26 47  1  0  0  0  0
 26 48  1  0  0  0  0
M  CHG  1  49  -1
M  END
$$$$
ZINC03972061
  -OEChem-08230709463D

 53 55  0     0  0  0  0  0  0999 V2000
    0.0508    0.7621   -1.4162 C   0  0  0  0  0  0  0  0  0  0  0  0
    0.0360    1.8643   -0.3886 C   0  0  0  0  0  0  0  0  0  0  0  0
   -1.1351    2.5333   -0.1116 C   0  0  0  0  0  0  0  0  0  0  0  0
   -1.1513    3.5466    0.8396 C   0  0  0  0  0  0  0  0  0  0  0  0
    0.0158    3.8981    1.5083 C   0  0  0  0  0  0  0  0  0  0  0  0
    1.1933    3.2395    1.2356 C   0  0  0  0  0  0  0  0  0  0  0  0
    1.2143    2.2138    0.2821 C   0  0  0  0  0  0  0  0  0  0  0  0
    2.4676    1.5080   -0.0134 C   0  0  0  0  0  0  0  0  0  0  0  0
    3.6285    2.2031   -0.1232 C   0  0  0  0  0  0  0  0  0  0  0  0
    3.8479    3.6618   -0.1447 C   0  0  0  0  0  0  0  0  0  0  0  0
    2.9212    4.4461   -0.0577 O   0  0  0  0  0  0  0  0  0  0  0  0
    5.0978    4.0783   -0.2578 N   0  0  0  0  0  0  0  0  0  0  0  0
    6.1320    3.1764   -0.3623 C   0  0  0  0  0  0  0  0  0  0  0  0
    7.4205    3.4189   -0.4859 N   0  0  0  0  0  0  0  0  0  0  0  0
    8.3026    2.3847   -0.5760 C   0  0  0  0  0  0  0  0  0  0  0  0
    8.1940    1.2935    0.2954 C   0  0  0  0  0  0  0  0  0  0  0  0
    9.0746    0.2562    0.2022 C   0  0  0  0  0  0  0  0  0  0  0  0
   10.0933    0.2866   -0.7581 C   0  0  0  0  0  0  0  0  0  0  0  0
   10.2053    1.3799   -1.6259 C   0  0  0  0  0  0  0  0  0  0  0  0
    9.3219    2.4152   -1.5362 C   0  0  0  0  0  0  0  0  0  0  0  0
   11.0468   -0.8306   -0.8551 C   0  0  0  0  0  0  0  0  0  0  0  0
   11.9313   -0.8041   -1.6884 O   0  0  0  0  0  0  0  0  0  0  0  0
    5.3017    1.5975   -0.2886 S   0  0  0  0  0  0  0  0  0  0  0  0
    5.3840    5.5149   -0.2793 C   0  0  0  0  0  0  0  0  0  0  0  0
   -0.0084    5.0020    2.5340 C   0  0  0  0  0  0  0  0  0  0  0  0
    0.4284    4.4468    3.8911 C   0  0  0  0  0  0  0  0  0  0  0  0
    0.9489    6.1163    2.1067 C   0  0  0  0  0  0  0  0  0  0  0  0
   -2.3101    4.1993    1.1129 O   0  0  0  0  0  0  0  0  0  0  0  0
   -3.4722    3.7882    0.3900 C   0  0  0  0  0  0  0  0  0  0  0  0
   -0.1595   -0.1906   -0.9302 H   0  0  0  0  0  0  0  0  0  0  0  0
   -0.7091    0.9599   -2.1722 H   0  0  0  0  0  0  0  0  0  0  0  0
    1.0317    0.7198   -1.8895 H   0  0  0  0  0  0  0  0  0  0  0  0
   -2.0437    2.2673   -0.6313 H   0  0  0  0  0  0  0  0  0  0  0  0
    2.0994    3.5134    1.7557 H   0  0  0  0  0  0  0  0  0  0  0  0
    2.4658    0.4358   -0.1434 H   0  0  0  0  0  0  0  0  0  0  0  0
    7.4106    1.2718    1.0386 H   0  0  0  0  0  0  0  0  0  0  0  0
    8.9884   -0.5871    0.8714 H   0  0  0  0  0  0  0  0  0  0  0  0
   10.9910    1.4032   -2.3665 H   0  0  0  0  0  0  0  0  0  0  0  0
    9.4086    3.2585   -2.2053 H   0  0  0  0  0  0  0  0  0  0  0  0
    5.3555    5.8757   -1.3075 H   0  0  0  0  0  0  0  0  0  0  0  0
    4.6361    6.0432    0.3120 H   0  0  0  0  0  0  0  0  0  0  0  0
    6.3733    5.6946    0.1416 H   0  0  0  0  0  0  0  0  0  0  0  0
   -1.0193    5.4020    2.6134 H   0  0  0  0  0  0  0  0  0  0  0  0
    1.4393    4.0468    3.8117 H   0  0  0  0  0  0  0  0  0  0  0  0
    0.4109    5.2452    4.6330 H   0  0  0  0  0  0  0  0  0  0  0  0
   -0.2536    3.6530    4.1956 H   0  0  0  0  0  0  0  0  0  0  0  0
    0.6377    6.5118    1.1398 H   0  0  0  0  0  0  0  0  0  0  0  0
    0.9314    6.9147    2.8485 H   0  0  0  0  0  0  0  0  0  0  0  0
    1.9598    5.7163    2.0273 H   0  0  0  0  0  0  0  0  0  0  0  0
   -4.3263    4.3888    0.7032 H   0  0  0  0  0  0  0  0  0  0  0  0
   -3.3034    3.9259   -0.6780 H   0  0  0  0  0  0  0  0  0  0  0  0
   -3.6735    2.7364    0.5934 H   0  0  0  0  0  0  0  0  0  0  0  0
   10.9390   -1.8831   -0.0198 O   0  5  0  0  0  0  0  0  0  0  0  0
  1  2  1  0  0  0  0
  1 30  1  0  0  0  0
  1 31  1  0  0  0  0
  1 32  1  0  0  0  0
  2  7  2  0  0  0  0
  2  3  1  0  0  0  0
  3  4  2  0  0  0  0
  3 33  1  0  0  0  0
  4  5  1  0  0  0  0
  4 28  1  0  0  0  0
  5  6  2  0  0  0  0
  5 25  1  0  0  0  0
  6  7  1  0  0  0  0
  6 34  1  0  0  0  0
  7  8  1  0  0  0  0
  8  9  2  0  0  0  0
  8 35  1  0  0  0  0
  9 23  1  0  0  0  0
  9 10  1  0  0  0  0
 10 11  2  0  0  0  0
 10 12  1  0  0  0  0
 12 13  1  0  0  0  0
 12 24  1  0  0  0  0
 13 14  2  0  0  0  0
 13 23  1  0  0  0  0
 14 15  1  0  0  0  0
 15 20  2  0  0  0  0
 15 16  1  0  0  0  0
 16 17  2  0  0  0  0
 16 36  1  0  0  0  0
 17 18  1  0  0  0  0
 17 37  1  0  0  0  0
 18 19  2  0  0  0  0
 18 21  1  0  0  0  0
 19 20  1  0  0  0  0
 19 38  1  0  0  0  0
 20 39  1  0  0  0  0
 21 22  2  0  0  0  0
 21 53  1  0  0  0  0
 24 40  1  0  0  0  0
 24 41  1  0  0  0  0
 24 42  1  0  0  0  0
 25 26  1  0  0  0  0
 25 27  1  0  0  0  0
 25 43  1  0  0  0  0
 26 44  1  0  0  0  0
 26 45  1  0  0  0  0
 26 46  1  0  0  0  0
 27 47  1  0  0  0  0
 27 48  1  0  0  0  0
 27 49  1  0  0  0  0
 28 29  1  0  0  0  0
 29 50  1  0  0  0  0
 29 51  1  0  0  0  0
 29 52  1  0  0  0  0
M  CHG  1  53  -1
M  END
$$$$
ZINC03972388
  -OEChem-08230709463D

 56 58  0     1  0  0  0  0  0999 V2000
    9.8940    1.0782    6.5161 C   0  0  0  0  0  0  0  0  0  0  0  0
    9.0663   -0.1809    6.5413 C   0  0  0  0  0  0  0  0  0  0  0  0
    8.0594   -0.2291    7.3533 C   0  0  0  0  0  0  0  0  0  0  0  0
    7.1391   -1.4074    7.4825 C   0  0  0  0  0  0  0  0  0  0  0  0
    7.7863   -2.6512    6.8693 C   0  0  2  0  0  0  0  0  0  0  0  0
    8.6178   -2.9777    7.4938 H   0  0  0  0  0  0  0  0  0  0  0  0
    8.3027   -2.2896    5.4709 C   0  0  2  0  0  0  0  0  0  0  0  0
    8.6528   -3.1880    4.9625 H   0  0  0  0  0  0  0  0  0  0  0  0
    9.4605   -1.3007    5.6233 C   0  0  0  0  0  0  0  0  0  0  0  0
    7.1953   -1.6537    4.6707 C   0  0  0  0  0  0  0  0  0  0  0  0
    6.9415   -0.4766    4.8153 O   0  0  0  0  0  0  0  0  0  0  0  0
    6.4870   -2.3931    3.7943 N   0  0  0  0  0  0  0  0  0  0  0  0
    5.4575   -1.8019    3.0503 N   0  0  0  0  0  0  0  0  0  0  0  0
    4.7492   -2.5412    2.1739 C   0  0  0  0  0  0  0  0  0  0  0  0
    5.0036   -3.7213    2.0289 O   0  0  0  0  0  0  0  0  0  0  0  0
    3.6645   -1.9184    1.3902 C   0  0  0  0  0  0  0  0  0  0  0  0
    2.9290   -2.6832    0.4810 C   0  0  0  0  0  0  0  0  0  0  0  0
    1.9182   -2.0984   -0.2486 C   0  0  0  0  0  0  0  0  0  0  0  0
    1.6291   -0.7491   -0.0817 C   0  0  0  0  0  0  0  0  0  0  0  0
    2.3619    0.0164    0.8178 C   0  0  0  0  0  0  0  0  0  0  0  0
    3.3708   -0.5623    1.5551 C   0  0  0  0  0  0  0  0  0  0  0  0
    0.6325   -0.1762   -0.8029 O   0  0  0  0  0  0  0  0  0  0  0  0
   -0.1415   -1.0386   -1.6391 C   0  0  0  0  0  0  0  0  0  0  0  0
    0.5455   -1.2007   -3.0108 C   0  0  0  0  0  0  0  0  0  0  0  0
   -0.6294   -1.2475   -4.0201 C   0  0  0  0  0  0  0  0  0  0  0  0
   -1.6250   -0.2153   -3.4350 C   0  0  0  0  0  0  0  0  0  0  0  0
   -1.5211   -0.4127   -1.9085 C   0  0  0  0  0  0  0  0  0  0  0  0
    6.7642   -3.7535    6.7624 C   0  0  0  0  0  0  0  0  0  0  0  0
    6.4753   -4.2066    5.6803 O   0  0  0  0  0  0  0  0  0  0  0  0
    7.7945    0.9730    8.2226 C   0  0  0  0  0  0  0  0  0  0  0  0
   10.7224    0.9545    5.8185 H   0  0  0  0  0  0  0  0  0  0  0  0
    9.2726    1.9151    6.1974 H   0  0  0  0  0  0  0  0  0  0  0  0
   10.2857    1.2756    7.5139 H   0  0  0  0  0  0  0  0  0  0  0  0
    6.9324   -1.5905    8.5369 H   0  0  0  0  0  0  0  0  0  0  0  0
    6.2048   -1.1949    6.9628 H   0  0  0  0  0  0  0  0  0  0  0  0
   10.3261   -1.8186    6.0361 H   0  0  0  0  0  0  0  0  0  0  0  0
    9.7167   -0.8909    4.6462 H   0  0  0  0  0  0  0  0  0  0  0  0
    6.6900   -3.3345    3.6785 H   0  0  0  0  0  0  0  0  0  0  0  0
    5.2545   -0.8604    3.1661 H   0  0  0  0  0  0  0  0  0  0  0  0
    3.1532   -3.7316    0.3505 H   0  0  0  0  0  0  0  0  0  0  0  0
    1.3490   -2.6889   -0.9512 H   0  0  0  0  0  0  0  0  0  0  0  0
    2.1373    1.0655    0.9414 H   0  0  0  0  0  0  0  0  0  0  0  0
    3.9370    0.0322    2.2568 H   0  0  0  0  0  0  0  0  0  0  0  0
   -0.2596   -2.0122   -1.1634 H   0  0  0  0  0  0  0  0  0  0  0  0
    1.1916   -0.3474   -3.2171 H   0  0  0  0  0  0  0  0  0  0  0  0
    1.1157   -2.1291   -3.0446 H   0  0  0  0  0  0  0  0  0  0  0  0
   -1.0752   -2.2418   -4.0471 H   0  0  0  0  0  0  0  0  0  0  0  0
   -0.3005   -0.9462   -5.0147 H   0  0  0  0  0  0  0  0  0  0  0  0
   -2.6379   -0.4250   -3.7787 H   0  0  0  0  0  0  0  0  0  0  0  0
   -1.3299    0.7974   -3.7096 H   0  0  0  0  0  0  0  0  0  0  0  0
   -2.3088   -1.0829   -1.5643 H   0  0  0  0  0  0  0  0  0  0  0  0
   -1.6003    0.5488   -1.4014 H   0  0  0  0  0  0  0  0  0  0  0  0
    8.4868    1.7723    7.9582 H   0  0  0  0  0  0  0  0  0  0  0  0
    6.7705    1.3137    8.0693 H   0  0  0  0  0  0  0  0  0  0  0  0
    7.9345    0.7025    9.2692 H   0  0  0  0  0  0  0  0  0  0  0  0
    6.1749   -4.2319    7.8695 O   0  5  0  0  0  0  0  0  0  0  0  0
  1  2  1  0  0  0  0
  1 31  1  0  0  0  0
  1 32  1  0  0  0  0
  1 33  1  0  0  0  0
  2  9  1  0  0  0  0
  2  3  2  0  0  0  0
  3  4  1  0  0  0  0
  3 30  1  0  0  0  0
  4  5  1  0  0  0  0
  4 34  1  0  0  0  0
  4 35  1  0  0  0  0
  5  6  1  0  0  0  0
  5  7  1  0  0  0  0
  5 28  1  0  0  0  0
  7  8  1  0  0  0  0
  7  9  1  0  0  0  0
  7 10  1  0  0  0  0
  9 36  1  0  0  0  0
  9 37  1  0  0  0  0
 10 11  2  0  0  0  0
 10 12  1  0  0  0  0
 12 13  1  0  0  0  0
 12 38  1  0  0  0  0
 13 14  1  0  0  0  0
 13 39  1  0  0  0  0
 14 15  2  0  0  0  0
 14 16  1  0  0  0  0
 16 21  2  0  0  0  0
 16 17  1  0  0  0  0
 17 18  2  0  0  0  0
 17 40  1  0  0  0  0
 18 19  1  0  0  0  0
 18 41  1  0  0  0  0
 19 20  2  0  0  0  0
 19 22  1  0  0  0  0
 20 21  1  0  0  0  0
 20 42  1  0  0  0  0
 21 43  1  0  0  0  0
 22 23  1  0  0  0  0
 23 27  1  0  0  0  0
 23 24  1  0  0  0  0
 23 44  1  0  0  0  0
 24 25  1  0  0  0  0
 24 45  1  0  0  0  0
 24 46  1  0  0  0  0
 25 26  1  0  0  0  0
 25 47  1  0  0  0  0
 25 48  1  0  0  0  0
 26 27  1  0  0  0  0
 26 49  1  0  0  0  0
 26 50  1  0  0  0  0
 27 51  1  0  0  0  0
 27 52  1  0  0  0  0
 28 29  2  0  0  0  0
 28 56  1  0  0  0  0
 30 53  1  0  0  0  0
 30 54  1  0  0  0  0
 30 55  1  0  0  0  0
M  CHG  1  56  -1
M  END
$$$$
ZINC03973450
  -OEChem-08230709463D

 48 49  0     0  0  0  0  0  0999 V2000
   -0.8220    1.6630   -1.1946 C   0  0  0  0  0  0  0  0  0  0  0  0
   -0.1126    1.0919    0.0349 C   0  0  0  0  0  0  0  0  0  0  0  0
   -0.6482    1.6926    1.2157 O   0  0  0  0  0  0  0  0  0  0  0  0
   -0.1241    1.2930    2.4025 C   0  0  0  0  0  0  0  0  0  0  0  0
    0.8878    0.3395    2.4268 C   0  0  0  0  0  0  0  0  0  0  0  0
    1.4229   -0.0694    3.6269 C   0  0  0  0  0  0  0  0  0  0  0  0
    0.9461    0.4771    4.8259 C   0  0  0  0  0  0  0  0  0  0  0  0
   -0.0735    1.4374    4.7952 C   0  0  0  0  0  0  0  0  0  0  0  0
   -0.5972    1.8429    3.5885 C   0  0  0  0  0  0  0  0  0  0  0  0
   -1.6897    2.8802    3.5533 C   0  0  0  0  0  0  0  0  0  0  0  0
   -2.9014    2.3715    4.3368 C   0  0  0  0  0  0  0  0  0  0  0  0
   -1.1817    4.1776    4.1854 C   0  0  0  0  0  0  0  0  0  0  0  0
    1.5121    0.0451    6.1083 C   0  0  0  0  0  0  0  0  0  0  0  0
    0.7209   -0.0159    7.2165 C   0  0  0  0  0  0  0  0  0  0  0  0
   -0.6901    0.1998    7.1016 C   0  0  0  0  0  0  0  0  0  0  0  0
   -1.8095    0.3708    7.0105 N   0  0  0  0  0  0  0  0  0  0  0  0
    1.3196   -0.3047    8.5376 C   0  0  0  0  0  0  0  0  0  0  0  0
    1.9091   -1.5480    8.7803 C   0  0  0  0  0  0  0  0  0  0  0  0
    2.4673   -1.8134    9.9984 C   0  0  0  0  0  0  0  0  0  0  0  0
    2.4385   -0.8445   11.0065 C   0  0  0  0  0  0  0  0  0  0  0  0
    1.8433    0.3977   10.7647 C   0  0  0  0  0  0  0  0  0  0  0  0
    1.2905    0.6638    9.5443 C   0  0  0  0  0  0  0  0  0  0  0  0
    3.0361   -1.1323   12.3237 C   0  0  0  0  0  0  0  0  0  0  0  0
    3.0112   -0.2901   13.1992 O   0  0  0  0  0  0  0  0  0  0  0  0
    2.5191   -1.1032    3.6516 C   0  0  0  0  0  0  0  0  0  0  0  0
   -1.8889    1.4495   -1.1302 H   0  0  0  0  0  0  0  0  0  0  0  0
   -0.6690    2.7415   -1.2340 H   0  0  0  0  0  0  0  0  0  0  0  0
   -0.4134    1.2048   -2.0953 H   0  0  0  0  0  0  0  0  0  0  0  0
   -0.2656    0.0134    0.0744 H   0  0  0  0  0  0  0  0  0  0  0  0
    0.9544    1.3054   -0.0294 H   0  0  0  0  0  0  0  0  0  0  0  0
    1.2547   -0.0807    1.5020 H   0  0  0  0  0  0  0  0  0  0  0  0
   -0.4445    1.8623    5.7162 H   0  0  0  0  0  0  0  0  0  0  0  0
   -1.9787    3.0687    2.5193 H   0  0  0  0  0  0  0  0  0  0  0  0
   -3.6917    3.1218    4.3114 H   0  0  0  0  0  0  0  0  0  0  0  0
   -3.2634    1.4472    3.8865 H   0  0  0  0  0  0  0  0  0  0  0  0
   -2.6125    2.1831    5.3708 H   0  0  0  0  0  0  0  0  0  0  0  0
   -0.3185    4.5400    3.6272 H   0  0  0  0  0  0  0  0  0  0  0  0
   -1.9720    4.9279    4.1600 H   0  0  0  0  0  0  0  0  0  0  0  0
   -0.8928    3.9892    5.2194 H   0  0  0  0  0  0  0  0  0  0  0  0
    2.5558   -0.2248    6.1744 H   0  0  0  0  0  0  0  0  0  0  0  0
    1.9274   -2.2978    8.0032 H   0  0  0  0  0  0  0  0  0  0  0  0
    2.9272   -2.7728   10.1843 H   0  0  0  0  0  0  0  0  0  0  0  0
    1.8210    1.1466   11.5426 H   0  0  0  0  0  0  0  0  0  0  0  0
    0.8311    1.6232    9.3573 H   0  0  0  0  0  0  0  0  0  0  0  0
    3.4880   -0.6067    3.5974 H   0  0  0  0  0  0  0  0  0  0  0  0
    2.4563   -1.6774    4.5759 H   0  0  0  0  0  0  0  0  0  0  0  0
    2.4060   -1.7731    2.7992 H   0  0  0  0  0  0  0  0  0  0  0  0
    3.6096   -2.3294   12.5564 O   0  5  0  0  0  0  0  0  0  0  0  0
  1  2  1  0  0  0  0
  1 26  1  0  0  0  0
  1 27  1  0  0  0  0
  1 28  1  0  0  0  0
  2  3  1  0  0  0  0
  2 29  1  0  0  0  0
  2 30  1  0  0  0  0
  3  4  1  0  0  0  0
  4  9  2  0  0  0  0
  4  5  1  0  0  0  0
  5  6  2  0  0  0  0
  5 31  1  0  0  0  0
  6  7  1  0  0  0  0
  6 25  1  0  0  0  0
  7  8  2  0  0  0  0
  7 13  1  0  0  0  0
  8  9  1  0  0  0  0
  8 32  1  0  0  0  0
  9 10  1  0  0  0  0
 10 11  1  0  0  0  0
 10 12  1  0  0  0  0
 10 33  1  0  0  0  0
 11 34  1  0  0  0  0
 11 35  1  0  0  0  0
 11 36  1  0  0  0  0
 12 37  1  0  0  0  0
 12 38  1  0  0  0  0
 12 39  1  0  0  0  0
 13 14  2  0  0  0  0
 13 40  1  0  0  0  0
 14 15  1  0  0  0  0
 14 17  1  0  0  0  0
 15 16  3  0  0  0  0
 17 22  2  0  0  0  0
 17 18  1  0  0  0  0
 18 19  2  0  0  0  0
 18 41  1  0  0  0  0
 19 20  1  0  0  0  0
 19 42  1  0  0  0  0
 20 21  2  0  0  0  0
 20 23  1  0  0  0  0
 21 22  1  0  0  0  0
 21 43  1  0  0  0  0
 22 44  1  0  0  0  0
 23 24  2  0  0  0  0
 23 48  1  0  0  0  0
 25 45  1  0  0  0  0
 25 46  1  0  0  0  0
 25 47  1  0  0  0  0
M  CHG  1  48  -1
M  END
$$$$
ZINC03974773
  -OEChem-08230709463D

 58 60  0     1  0  0  0  0  0999 V2000
   -2.6570   -6.9257   -3.9514 C   0  0  0  0  0  0  0  0  0  0  0  0
   -1.8740   -5.6122   -3.9017 C   0  0  0  0  0  0  0  0  0  0  0  0
   -0.4124   -5.8755   -4.2696 C   0  0  0  0  0  0  0  0  0  0  0  0
   -2.4537   -4.6618   -4.8540 N   0  0  0  0  0  0  0  0  0  0  0  0
   -3.0759   -3.5027   -4.3821 C   0  0  0  0  0  0  0  0  0  0  0  0
   -2.8875   -3.1015   -3.0651 C   0  0  0  0  0  0  0  0  0  0  0  0
   -3.4800   -1.9415   -2.6069 C   0  0  0  0  0  0  0  0  0  0  0  0
   -4.2715   -1.1862   -3.4531 C   0  0  0  0  0  0  0  0  0  0  0  0
   -4.4673   -1.5871   -4.7617 C   0  0  0  0  0  0  0  0  0  0  0  0
   -3.8731   -2.7442   -5.2271 C   0  0  0  0  0  0  0  0  0  0  0  0
   -4.1016   -3.1877   -6.6493 C   0  0  0  0  0  0  0  0  0  0  0  0
   -2.8517   -3.8937   -7.1754 C   0  0  0  0  0  0  0  0  0  0  0  0
   -2.3815   -4.9138   -6.1724 C   0  0  0  0  0  0  0  0  0  0  0  0
   -1.9331   -5.9727   -6.5578 O   0  0  0  0  0  0  0  0  0  0  0  0
   -5.2890   -4.1514   -6.6975 C   0  0  0  0  0  0  0  0  0  0  0  0
   -4.4009   -1.9669   -7.5216 C   0  0  0  0  0  0  0  0  0  0  0  0
   -4.9166    0.0792   -2.9495 C   0  0  1  0  0  0  0  0  0  0  0  0
   -6.4152    0.2568   -3.2017 C   0  0  0  0  0  0  0  0  0  0  0  0
   -5.9075   -0.0459   -1.7905 C   0  0  1  0  0  0  0  0  0  0  0  0
   -5.9345    0.7639   -1.0614 H   0  0  0  0  0  0  0  0  0  0  0  0
   -6.1636   -1.4251   -1.2398 C   0  0  0  0  0  0  0  0  0  0  0  0
   -6.7526   -1.5702   -0.0512 C   0  0  0  0  0  0  0  0  0  0  0  0
   -7.0013   -2.9091    0.4834 C   0  0  0  0  0  0  0  0  0  0  0  0
   -7.5984   -3.0561    1.6885 C   0  0  0  0  0  0  0  0  0  0  0  0
   -8.0870   -4.3260    2.0873 C   0  0  0  0  0  0  0  0  0  0  0  0
   -8.0821   -5.2540    1.3008 O   0  0  0  0  0  0  0  0  0  0  0  0
   -6.5922   -4.1244   -0.3081 C   0  0  0  0  0  0  0  0  0  0  0  0
   -4.0390    1.3316   -2.9966 C   0  0  0  0  0  0  0  0  0  0  0  0
   -2.6049   -7.3419   -4.9574 H   0  0  0  0  0  0  0  0  0  0  0  0
   -2.2257   -7.6328   -3.2428 H   0  0  0  0  0  0  0  0  0  0  0  0
   -3.6983   -6.7381   -3.6892 H   0  0  0  0  0  0  0  0  0  0  0  0
   -1.9261   -5.1960   -2.8956 H   0  0  0  0  0  0  0  0  0  0  0  0
    0.1454   -4.9397   -4.2342 H   0  0  0  0  0  0  0  0  0  0  0  0
    0.0189   -6.5826   -3.5610 H   0  0  0  0  0  0  0  0  0  0  0  0
   -0.3603   -6.2917   -5.2756 H   0  0  0  0  0  0  0  0  0  0  0  0
   -2.2750   -3.6941   -2.4018 H   0  0  0  0  0  0  0  0  0  0  0  0
   -3.3289   -1.6260   -1.5851 H   0  0  0  0  0  0  0  0  0  0  0  0
   -5.0855   -0.9954   -5.4206 H   0  0  0  0  0  0  0  0  0  0  0  0
   -3.0859   -4.3918   -8.1163 H   0  0  0  0  0  0  0  0  0  0  0  0
   -2.0633   -3.1593   -7.3407 H   0  0  0  0  0  0  0  0  0  0  0  0
   -6.1812   -3.6475   -6.3260 H   0  0  0  0  0  0  0  0  0  0  0  0
   -5.4547   -4.4725   -7.7259 H   0  0  0  0  0  0  0  0  0  0  0  0
   -5.0769   -5.0207   -6.0751 H   0  0  0  0  0  0  0  0  0  0  0  0
   -3.5559   -1.2792   -7.4864 H   0  0  0  0  0  0  0  0  0  0  0  0
   -4.5663   -2.2870   -8.5503 H   0  0  0  0  0  0  0  0  0  0  0  0
   -5.2939   -1.4646   -7.1494 H   0  0  0  0  0  0  0  0  0  0  0  0
   -6.9345   -0.5416   -3.7318 H   0  0  0  0  0  0  0  0  0  0  0  0
   -6.7763    1.2658   -3.4010 H   0  0  0  0  0  0  0  0  0  0  0  0
   -5.8705   -2.2961   -1.8070 H   0  0  0  0  0  0  0  0  0  0  0  0
   -7.0458   -0.6992    0.5161 H   0  0  0  0  0  0  0  0  0  0  0  0
   -7.7030   -2.2063    2.3466 H   0  0  0  0  0  0  0  0  0  0  0  0
   -7.4629   -4.5348   -0.8196 H   0  0  0  0  0  0  0  0  0  0  0  0
   -5.8384   -3.8425   -1.0432 H   0  0  0  0  0  0  0  0  0  0  0  0
   -6.1795   -4.8751    0.3659 H   0  0  0  0  0  0  0  0  0  0  0  0
   -3.4327    1.3846   -2.0924 H   0  0  0  0  0  0  0  0  0  0  0  0
   -3.3871    1.2858   -3.8690 H   0  0  0  0  0  0  0  0  0  0  0  0
   -4.6720    2.2165   -3.0621 H   0  0  0  0  0  0  0  0  0  0  0  0
   -8.5522   -4.5065    3.3409 O   0  5  0  0  0  0  0  0  0  0  0  0
  1  2  1  0  0  0  0
  1 29  1  0  0  0  0
  1 30  1  0  0  0  0
  1 31  1  0  0  0  0
  2  3  1  0  0  0  0
  2  4  1  0  0  0  0
  2 32  1  0  0  0  0
  3 33  1  0  0  0  0
  3 34  1  0  0  0  0
  3 35  1  0  0  0  0
  4 13  1  0  0  0  0
  4  5  1  0  0  0  0
  5 10  2  0  0  0  0
  5  6  1  0  0  0  0
  6  7  2  0  0  0  0
  6 36  1  0  0  0  0
  7  8  1  0  0  0  0
  7 37  1  0  0  0  0
  8  9  2  0  0  0  0
  8 17  1  0  0  0  0
  9 10  1  0  0  0  0
  9 38  1  0  0  0  0
 10 11  1  0  0  0  0
 11 12  1  0  0  0  0
 11 15  1  0  0  0  0
 11 16  1  0  0  0  0
 12 13  1  0  0  0  0
 12 39  1  0  0  0  0
 12 40  1  0  0  0  0
 13 14  2  0  0  0  0
 15 41  1  0  0  0  0
 15 42  1  0  0  0  0
 15 43  1  0  0  0  0
 16 44  1  0  0  0  0
 16 45  1  0  0  0  0
 16 46  1  0  0  0  0
 17 19  1  0  0  0  0
 17 18  1  0  0  0  0
 17 28  1  0  0  0  0
 18 19  1  0  0  0  0
 18 47  1  0  0  0  0
 18 48  1  0  0  0  0
 19 20  1  0  0  0  0
 19 21  1  0  0  0  0
 21 22  2  0  0  0  0
 21 49  1  0  0  0  0
 22 23  1  0  0  0  0
 22 50  1  0  0  0  0
 23 24  2  0  0  0  0
 23 27  1  0  0  0  0
 24 25  1  0  0  0  0
 24 51  1  0  0  0  0
 25 26  2  0  0  0  0
 25 58  1  0  0  0  0
 27 52  1  0  0  0  0
 27 53  1  0  0  0  0
 27 54  1  0  0  0  0
 28 55  1  0  0  0  0
 28 56  1  0  0  0  0
 28 57  1  0  0  0  0
M  CHG  1  58  -1
M  END
$$$$
ZINC03976896
  -OEChem-08230709463D

 52 53  0     0  0  0  0  0  0999 V2000
   -5.7436   -2.0549    1.4522 C   0  0  0  0  0  0  0  0  0  0  0  0
   -4.6325   -1.0295    1.6869 C   0  0  0  0  0  0  0  0  0  0  0  0
   -4.1862   -1.0870    3.1492 C   0  0  0  0  0  0  0  0  0  0  0  0
   -5.1565    0.3722    1.3683 C   0  0  0  0  0  0  0  0  0  0  0  0
   -3.4617   -1.3437    0.7916 C   0  0  0  0  0  0  0  0  0  0  0  0
   -3.5112   -2.2961    0.0382 O   0  0  0  0  0  0  0  0  0  0  0  0
   -2.3153   -0.5372    0.8278 C   0  0  0  0  0  0  0  0  0  0  0  0
   -1.2452   -0.8243    0.0095 C   0  0  0  0  0  0  0  0  0  0  0  0
    0.0021   -0.0041    0.0020 C   0  0  0  0  0  0  0  0  0  0  0  0
   -0.0166    1.3737    0.0096 C   0  0  0  0  0  0  0  0  0  0  0  0
    1.1875    2.0909    0.0019 C   0  0  0  0  0  0  0  0  0  0  0  0
    2.2482    1.4976   -0.0114 O   0  0  0  0  0  0  0  0  0  0  0  0
    1.1670    3.5978    0.0102 C   0  0  0  0  0  0  0  0  0  0  0  0
    2.6024    4.1274   -0.0006 C   0  0  0  0  0  0  0  0  0  0  0  0
    0.4270    4.1046   -1.2293 C   0  0  0  0  0  0  0  0  0  0  0  0
    0.4509    4.0912    1.2690 C   0  0  0  0  0  0  0  0  0  0  0  0
    1.1804   -0.7339   -0.0191 N   0  0  0  0  0  0  0  0  0  0  0  0
    1.1742   -1.9555   -0.6976 C   0  0  0  0  0  0  0  0  0  0  0  0
    2.3743   -2.5969   -0.9555 C   0  0  0  0  0  0  0  0  0  0  0  0
    2.3772   -3.8283   -1.6141 C   0  0  0  0  0  0  0  0  0  0  0  0
    1.1684   -4.4099   -2.0111 C   0  0  0  0  0  0  0  0  0  0  0  0
   -0.0220   -3.7679   -1.7585 C   0  0  0  0  0  0  0  0  0  0  0  0
   -0.0298   -2.5377   -1.1064 C   0  0  0  0  0  0  0  0  0  0  0  0
   -1.2457   -1.8969   -0.8697 N   0  0  0  0  0  0  0  0  0  0  0  0
    3.6528   -4.5145   -1.8912 C   0  0  0  0  0  0  0  0  0  0  0  0
    4.7023   -4.0087   -1.5460 O   0  0  0  0  0  0  0  0  0  0  0  0
   -5.3703   -3.0535    1.6791 H   0  0  0  0  0  0  0  0  0  0  0  0
   -6.5904   -1.8276    2.0997 H   0  0  0  0  0  0  0  0  0  0  0  0
   -6.0616   -2.0139    0.4104 H   0  0  0  0  0  0  0  0  0  0  0  0
   -3.3946   -0.3565    3.3165 H   0  0  0  0  0  0  0  0  0  0  0  0
   -5.0330   -0.8597    3.7968 H   0  0  0  0  0  0  0  0  0  0  0  0
   -3.8129   -2.0856    3.3762 H   0  0  0  0  0  0  0  0  0  0  0  0
   -5.4745    0.4131    0.3265 H   0  0  0  0  0  0  0  0  0  0  0  0
   -6.0033    0.5994    2.0159 H   0  0  0  0  0  0  0  0  0  0  0  0
   -4.3649    1.1027    1.5355 H   0  0  0  0  0  0  0  0  0  0  0  0
   -2.2713    0.3092    1.4973 H   0  0  0  0  0  0  0  0  0  0  0  0
   -0.9591    1.9010    0.0169 H   0  0  0  0  0  0  0  0  0  0  0  0
    3.1126    3.7758   -0.8974 H   0  0  0  0  0  0  0  0  0  0  0  0
    2.5876    5.2172    0.0054 H   0  0  0  0  0  0  0  0  0  0  0  0
    3.1296    3.7663    0.8824 H   0  0  0  0  0  0  0  0  0  0  0  0
   -0.5956    3.7273   -1.2216 H   0  0  0  0  0  0  0  0  0  0  0  0
    0.4123    5.1945   -1.2233 H   0  0  0  0  0  0  0  0  0  0  0  0
    0.9372    3.7531   -2.1261 H   0  0  0  0  0  0  0  0  0  0  0  0
    0.9781    3.7301    2.1521 H   0  0  0  0  0  0  0  0  0  0  0  0
    0.4361    5.1811    1.2750 H   0  0  0  0  0  0  0  0  0  0  0  0
   -0.5717    3.7139    1.2768 H   0  0  0  0  0  0  0  0  0  0  0  0
    1.9811   -0.4104    0.4228 H   0  0  0  0  0  0  0  0  0  0  0  0
    3.3061   -2.1455   -0.6483 H   0  0  0  0  0  0  0  0  0  0  0  0
    1.1696   -5.3642   -2.5169 H   0  0  0  0  0  0  0  0  0  0  0  0
   -0.9533   -4.2194   -2.0673 H   0  0  0  0  0  0  0  0  0  0  0  0
   -2.0617   -2.1904   -1.3042 H   0  0  0  0  0  0  0  0  0  0  0  0
    3.6546   -5.7025   -2.5271 O   0  5  0  0  0  0  0  0  0  0  0  0
  1  2  1  0  0  0  0
  1 27  1  0  0  0  0
  1 28  1  0  0  0  0
  1 29  1  0  0  0  0
  2  3  1  0  0  0  0
  2  4  1  0  0  0  0
  2  5  1  0  0  0  0
  3 30  1  0  0  0  0
  3 31  1  0  0  0  0
  3 32  1  0  0  0  0
  4 33  1  0  0  0  0
  4 34  1  0  0  0  0
  4 35  1  0  0  0  0
  5  6  2  0  0  0  0
  5  7  1  0  0  0  0
  7  8  2  0  0  0  0
  7 36  1  0  0  0  0
  8 24  1  0  0  0  0
  8  9  1  0  0  0  0
  9 10  2  0  0  0  0
  9 17  1  0  0  0  0
 10 11  1  0  0  0  0
 10 37  1  0  0  0  0
 11 12  2  0  0  0  0
 11 13  1  0  0  0  0
 13 14  1  0  0  0  0
 13 15  1  0  0  0  0
 13 16  1  0  0  0  0
 14 38  1  0  0  0  0
 14 39  1  0  0  0  0
 14 40  1  0  0  0  0
 15 41  1  0  0  0  0
 15 42  1  0  0  0  0
 15 43  1  0  0  0  0
 16 44  1  0  0  0  0
 16 45  1  0  0  0  0
 16 46  1  0  0  0  0
 17 18  1  0  0  0  0
 17 47  1  0  0  0  0
 18 23  2  0  0  0  0
 18 19  1  0  0  0  0
 19 20  2  0  0  0  0
 19 48  1  0  0  0  0
 20 21  1  0  0  0  0
 20 25  1  0  0  0  0
 21 22  2  0  0  0  0
 21 49  1  0  0  0  0
 22 23  1  0  0  0  0
 22 50  1  0  0  0  0
 23 24  1  0  0  0  0
 24 51  1  0  0  0  0
 25 26  2  0  0  0  0
 25 52  1  0  0  0  0
M  CHG  1  52  -1
M  END
$$$$
ZINC03976898
  -OEChem-08230709463D

 52 53  0     0  0  0  0  0  0999 V2000
    6.0760    6.1643   -3.7441 C   0  0  0  0  0  0  0  0  0  0  0  0
    5.0396    6.9483   -2.9364 C   0  0  0  0  0  0  0  0  0  0  0  0
    4.2059    7.8154   -3.8818 C   0  0  0  0  0  0  0  0  0  0  0  0
    5.7543    7.8425   -1.9212 C   0  0  0  0  0  0  0  0  0  0  0  0
    4.1362    5.9857   -2.2096 C   0  0  0  0  0  0  0  0  0  0  0  0
    4.3050    4.7878   -2.3264 O   0  0  0  0  0  0  0  0  0  0  0  0
    3.1009    6.4720   -1.3987 C   0  0  0  0  0  0  0  0  0  0  0  0
    2.2752    5.5922   -0.7344 C   0  0  0  0  0  0  0  0  0  0  0  0
    1.0823    6.0420    0.0423 C   0  0  0  0  0  0  0  0  0  0  0  0
    1.1151    7.1293    0.8880 C   0  0  0  0  0  0  0  0  0  0  0  0
    2.3407    7.7229    1.2191 C   0  0  0  0  0  0  0  0  0  0  0  0
    3.3816    7.2112    0.8558 O   0  0  0  0  0  0  0  0  0  0  0  0
    2.3681    8.9958    2.0254 C   0  0  0  0  0  0  0  0  0  0  0  0
    3.8189    9.4286    2.2461 C   0  0  0  0  0  0  0  0  0  0  0  0
    1.6175   10.0943    1.2700 C   0  0  0  0  0  0  0  0  0  0  0  0
    1.6957    8.7566    3.3788 C   0  0  0  0  0  0  0  0  0  0  0  0
   -0.0610    5.2826   -0.1524 N   0  0  0  0  0  0  0  0  0  0  0  0
    0.1068    3.9142   -0.3955 C   0  0  0  0  0  0  0  0  0  0  0  0
   -0.9921    3.0731   -0.3368 C   0  0  0  0  0  0  0  0  0  0  0  0
   -0.8389    1.7097   -0.5969 C   0  0  0  0  0  0  0  0  0  0  0  0
    0.4252    1.1960   -0.9056 C   0  0  0  0  0  0  0  0  0  0  0  0
    1.5158    2.0331   -0.9593 C   0  0  0  0  0  0  0  0  0  0  0  0
    1.3680    3.3935   -0.7017 C   0  0  0  0  0  0  0  0  0  0  0  0
    2.4893    4.2220   -0.7374 N   0  0  0  0  0  0  0  0  0  0  0  0
   -2.0073    0.8115   -0.5409 C   0  0  0  0  0  0  0  0  0  0  0  0
   -3.1049    1.2584   -0.2727 O   0  0  0  0  0  0  0  0  0  0  0  0
    5.5669    5.5273   -4.4673 H   0  0  0  0  0  0  0  0  0  0  0  0
    6.7294    6.8606   -4.2697 H   0  0  0  0  0  0  0  0  0  0  0  0
    6.6700    5.5466   -3.0705 H   0  0  0  0  0  0  0  0  0  0  0  0
    3.4675    8.3739   -3.3065 H   0  0  0  0  0  0  0  0  0  0  0  0
    4.8593    8.5117   -4.4075 H   0  0  0  0  0  0  0  0  0  0  0  0
    3.6967    7.1784   -4.6051 H   0  0  0  0  0  0  0  0  0  0  0  0
    6.3483    7.2247   -1.2477 H   0  0  0  0  0  0  0  0  0  0  0  0
    6.4077    8.5388   -2.4469 H   0  0  0  0  0  0  0  0  0  0  0  0
    5.0160    8.4010   -1.3458 H   0  0  0  0  0  0  0  0  0  0  0  0
    2.9509    7.5365   -1.2949 H   0  0  0  0  0  0  0  0  0  0  0  0
    0.1962    7.5242    1.2958 H   0  0  0  0  0  0  0  0  0  0  0  0
    4.2979    9.5989    1.2820 H   0  0  0  0  0  0  0  0  0  0  0  0
    3.8387   10.3492    2.8294 H   0  0  0  0  0  0  0  0  0  0  0  0
    4.3537    8.6460    2.7843 H   0  0  0  0  0  0  0  0  0  0  0  0
    0.5839    9.7860    1.1128 H   0  0  0  0  0  0  0  0  0  0  0  0
    1.6373   11.0149    1.8533 H   0  0  0  0  0  0  0  0  0  0  0  0
    2.0965   10.2646    0.3059 H   0  0  0  0  0  0  0  0  0  0  0  0
    2.2305    7.9740    3.9170 H   0  0  0  0  0  0  0  0  0  0  0  0
    1.7155    9.6773    3.9621 H   0  0  0  0  0  0  0  0  0  0  0  0
    0.6621    8.4483    3.2216 H   0  0  0  0  0  0  0  0  0  0  0  0
   -0.9435    5.6840   -0.1211 H   0  0  0  0  0  0  0  0  0  0  0  0
   -1.9662    3.4716   -0.0946 H   0  0  0  0  0  0  0  0  0  0  0  0
    0.5444    0.1416   -1.1064 H   0  0  0  0  0  0  0  0  0  0  0  0
    2.4894    1.6339   -1.2024 H   0  0  0  0  0  0  0  0  0  0  0  0
    3.3862    3.8534   -0.7630 H   0  0  0  0  0  0  0  0  0  0  0  0
   -1.8576   -0.5049   -0.7871 O   0  5  0  0  0  0  0  0  0  0  0  0
  1  2  1  0  0  0  0
  1 27  1  0  0  0  0
  1 28  1  0  0  0  0
  1 29  1  0  0  0  0
  2  3  1  0  0  0  0
  2  4  1  0  0  0  0
  2  5  1  0  0  0  0
  3 30  1  0  0  0  0
  3 31  1  0  0  0  0
  3 32  1  0  0  0  0
  4 33  1  0  0  0  0
  4 34  1  0  0  0  0
  4 35  1  0  0  0  0
  5  6  2  0  0  0  0
  5  7  1  0  0  0  0
  7  8  2  0  0  0  0
  7 36  1  0  0  0  0
  8 24  1  0  0  0  0
  8  9  1  0  0  0  0
  9 10  2  0  0  0  0
  9 17  1  0  0  0  0
 10 11  1  0  0  0  0
 10 37  1  0  0  0  0
 11 12  2  0  0  0  0
 11 13  1  0  0  0  0
 13 14  1  0  0  0  0
 13 15  1  0  0  0  0
 13 16  1  0  0  0  0
 14 38  1  0  0  0  0
 14 39  1  0  0  0  0
 14 40  1  0  0  0  0
 15 41  1  0  0  0  0
 15 42  1  0  0  0  0
 15 43  1  0  0  0  0
 16 44  1  0  0  0  0
 16 45  1  0  0  0  0
 16 46  1  0  0  0  0
 17 18  1  0  0  0  0
 17 47  1  0  0  0  0
 18 23  2  0  0  0  0
 18 19  1  0  0  0  0
 19 20  2  0  0  0  0
 19 48  1  0  0  0  0
 20 21  1  0  0  0  0
 20 25  1  0  0  0  0
 21 22  2  0  0  0  0
 21 49  1  0  0  0  0
 22 23  1  0  0  0  0
 22 50  1  0  0  0  0
 23 24  1  0  0  0  0
 24 51  1  0  0  0  0
 25 26  2  0  0  0  0
 25 52  1  0  0  0  0
M  CHG  1  52  -1
M  END
$$$$
ZINC03976960
  -OEChem-08230709463D

 58 60  0     0  0  0  0  0  0999 V2000
    1.0847    3.4834   -0.0566 C   0  0  0  0  0  0  0  0  0  0  0  0
    1.1578    1.9824   -0.1685 C   0  0  0  0  0  0  0  0  0  0  0  0
   -0.0026    1.2406   -0.2782 C   0  0  0  0  0  0  0  0  0  0  0  0
    0.0647   -0.1407   -0.3816 C   0  0  0  0  0  0  0  0  0  0  0  0
    1.2970   -0.7775   -0.3752 C   0  0  0  0  0  0  0  0  0  0  0  0
    2.4570   -0.0360   -0.2655 C   0  0  0  0  0  0  0  0  0  0  0  0
    2.3897    1.3457   -0.1616 C   0  0  0  0  0  0  0  0  0  0  0  0
    3.5318    2.0758   -0.0536 O   0  0  0  0  0  0  0  0  0  0  0  0
    4.7561    1.3501    0.0745 C   0  0  0  0  0  0  0  0  0  0  0  0
    5.9187    2.3334    0.2234 C   0  0  0  0  0  0  0  0  0  0  0  0
    4.6884    0.4496    1.3096 C   0  0  0  0  0  0  0  0  0  0  0  0
    4.9687    0.5030   -1.1537 C   0  0  0  0  0  0  0  0  0  0  0  0
    4.1553    0.5192   -2.0470 O   0  0  0  0  0  0  0  0  0  0  0  0
   -1.0774   -0.8708   -0.4896 O   0  0  0  0  0  0  0  0  0  0  0  0
   -0.9336   -2.2888   -0.5924 C   0  0  0  0  0  0  0  0  0  0  0  0
   -2.2952   -2.9251   -0.7031 C   0  0  0  0  0  0  0  0  0  0  0  0
   -2.9527   -3.1680   -1.8096 N   0  0  0  0  0  0  0  0  0  0  0  0
   -4.1137   -3.7434   -1.4232 C   0  0  0  0  0  0  0  0  0  0  0  0
   -4.0969   -3.8076   -0.1172 N   0  0  0  0  0  0  0  0  0  0  0  0
   -3.0612   -3.3425    0.3096 O   0  0  0  0  0  0  0  0  0  0  0  0
   -5.2056   -4.2090   -2.3142 C   0  0  0  0  0  0  0  0  0  0  0  0
   -5.0879   -4.0703   -3.6955 C   0  0  0  0  0  0  0  0  0  0  0  0
   -6.1047   -4.5085   -4.5197 C   0  0  0  0  0  0  0  0  0  0  0  0
   -7.2429   -5.0760   -3.9760 C   0  0  0  0  0  0  0  0  0  0  0  0
   -7.3671   -5.2118   -2.6051 C   0  0  0  0  0  0  0  0  0  0  0  0
   -6.3545   -4.7810   -1.7720 C   0  0  0  0  0  0  0  0  0  0  0  0
   -8.3520   -5.5478   -4.8807 C   0  0  0  0  0  0  0  0  0  0  0  0
   -9.6389   -4.7903   -4.5476 C   0  0  0  0  0  0  0  0  0  0  0  0
   -7.9681   -5.2847   -6.3382 C   0  0  0  0  0  0  0  0  0  0  0  0
   -8.5751   -7.0474   -4.6747 C   0  0  0  0  0  0  0  0  0  0  0  0
    1.0205    3.7668    0.9939 H   0  0  0  0  0  0  0  0  0  0  0  0
    1.9784    3.9246   -0.4980 H   0  0  0  0  0  0  0  0  0  0  0  0
    0.2024    3.8446   -0.5850 H   0  0  0  0  0  0  0  0  0  0  0  0
   -0.9618    1.7368   -0.2880 H   0  0  0  0  0  0  0  0  0  0  0  0
    1.3494   -1.8532   -0.4557 H   0  0  0  0  0  0  0  0  0  0  0  0
    3.4165   -0.5317   -0.2609 H   0  0  0  0  0  0  0  0  0  0  0  0
    5.8095    2.8866    1.1562 H   0  0  0  0  0  0  0  0  0  0  0  0
    6.8601    1.7840    0.2348 H   0  0  0  0  0  0  0  0  0  0  0  0
    5.9149    3.0302   -0.6149 H   0  0  0  0  0  0  0  0  0  0  0  0
    3.7859   -0.1601    1.2657 H   0  0  0  0  0  0  0  0  0  0  0  0
    5.5641   -0.1989    1.3349 H   0  0  0  0  0  0  0  0  0  0  0  0
    4.6669    1.0663    2.2081 H   0  0  0  0  0  0  0  0  0  0  0  0
   -0.3461   -2.5313   -1.4779 H   0  0  0  0  0  0  0  0  0  0  0  0
   -0.4265   -2.6678    0.2950 H   0  0  0  0  0  0  0  0  0  0  0  0
   -4.2013   -3.6235   -4.1208 H   0  0  0  0  0  0  0  0  0  0  0  0
   -6.0130   -4.4045   -5.5907 H   0  0  0  0  0  0  0  0  0  0  0  0
   -8.2581   -5.6553   -2.1859 H   0  0  0  0  0  0  0  0  0  0  0  0
   -6.4528   -4.8868   -0.7017 H   0  0  0  0  0  0  0  0  0  0  0  0
   -9.4800   -3.7219   -4.6943 H   0  0  0  0  0  0  0  0  0  0  0  0
  -10.4411   -5.1315   -5.2019 H   0  0  0  0  0  0  0  0  0  0  0  0
   -9.9124   -4.9777   -3.5092 H   0  0  0  0  0  0  0  0  0  0  0  0
   -7.0513   -5.8244   -6.5755 H   0  0  0  0  0  0  0  0  0  0  0  0
   -8.7703   -5.6260   -6.9925 H   0  0  0  0  0  0  0  0  0  0  0  0
   -7.8091   -4.2164   -6.4849 H   0  0  0  0  0  0  0  0  0  0  0  0
   -8.8486   -7.2348   -3.6364 H   0  0  0  0  0  0  0  0  0  0  0  0
   -9.3773   -7.3886   -5.3291 H   0  0  0  0  0  0  0  0  0  0  0  0
   -7.6583   -7.5871   -4.9120 H   0  0  0  0  0  0  0  0  0  0  0  0
    6.0618   -0.2694   -1.2552 O   0  5  0  0  0  0  0  0  0  0  0  0
  1  2  1  0  0  0  0
  1 31  1  0  0  0  0
  1 32  1  0  0  0  0
  1 33  1  0  0  0  0
  2  7  2  0  0  0  0
  2  3  1  0  0  0  0
  3  4  2  0  0  0  0
  3 34  1  0  0  0  0
  4  5  1  0  0  0  0
  4 14  1  0  0  0  0
  5  6  2  0  0  0  0
  5 35  1  0  0  0  0
  6  7  1  0  0  0  0
  6 36  1  0  0  0  0
  7  8  1  0  0  0  0
  8  9  1  0  0  0  0
  9 10  1  0  0  0  0
  9 11  1  0  0  0  0
  9 12  1  0  0  0  0
 10 37  1  0  0  0  0
 10 38  1  0  0  0  0
 10 39  1  0  0  0  0
 11 40  1  0  0  0  0
 11 41  1  0  0  0  0
 11 42  1  0  0  0  0
 12 13  2  0  0  0  0
 12 58  1  0  0  0  0
 14 15  1  0  0  0  0
 15 16  1  0  0  0  0
 15 43  1  0  0  0  0
 15 44  1  0  0  0  0
 16 20  1  0  0  0  0
 16 17  2  0  0  0  0
 17 18  1  0  0  0  0
 18 19  2  0  0  0  0
 18 21  1  0  0  0  0
 19 20  1  0  0  0  0
 21 26  2  0  0  0  0
 21 22  1  0  0  0  0
 22 23  2  0  0  0  0
 22 45  1  0  0  0  0
 23 24  1  0  0  0  0
 23 46  1  0  0  0  0
 24 25  2  0  0  0  0
 24 27  1  0  0  0  0
 25 26  1  0  0  0  0
 25 47  1  0  0  0  0
 26 48  1  0  0  0  0
 27 28  1  0  0  0  0
 27 29  1  0  0  0  0
 27 30  1  0  0  0  0
 28 49  1  0  0  0  0
 28 50  1  0  0  0  0
 28 51  1  0  0  0  0
 29 52  1  0  0  0  0
 29 53  1  0  0  0  0
 29 54  1  0  0  0  0
 30 55  1  0  0  0  0
 30 56  1  0  0  0  0
 30 57  1  0  0  0  0
M  CHG  1  58  -1
M  END
$$$$
ZINC03977384
  -OEChem-08230709463D

 53 55  0     0  0  0  0  0  0999 V2000
    1.8529    3.5099    1.4277 C   0  0  0  0  0  0  0  0  0  0  0  0
    0.8915    2.9509    0.4107 C   0  0  0  0  0  0  0  0  0  0  0  0
   -0.2983    3.5965    0.1585 C   0  0  0  0  0  0  0  0  0  0  0  0
   -1.1857    3.0823   -0.7794 C   0  0  0  0  0  0  0  0  0  0  0  0
   -0.8757    1.9173   -1.4718 C   0  0  0  0  0  0  0  0  0  0  0  0
    0.3086    1.2607   -1.2239 C   0  0  0  0  0  0  0  0  0  0  0  0
    1.2066    1.7743   -0.2798 C   0  0  0  0  0  0  0  0  0  0  0  0
    2.4737    1.0811   -0.0148 C   0  0  0  0  0  0  0  0  0  0  0  0
    2.4996   -0.2726    0.0811 C   0  0  0  0  0  0  0  0  0  0  0  0
    1.3780   -1.2308    0.1080 C   0  0  0  0  0  0  0  0  0  0  0  0
    0.2213   -0.8582    0.0406 O   0  0  0  0  0  0  0  0  0  0  0  0
    1.6866   -2.5127    0.2082 N   0  0  0  0  0  0  0  0  0  0  0  0
    3.0025   -2.9145    0.2830 C   0  0  0  0  0  0  0  0  0  0  0  0
    3.4797   -4.1348    0.3843 N   0  0  0  0  0  0  0  0  0  0  0  0
    4.8318   -4.3379    0.4466 C   0  0  0  0  0  0  0  0  0  0  0  0
    5.6831   -3.6613   -0.4318 C   0  0  0  0  0  0  0  0  0  0  0  0
    7.0474   -3.8607   -0.3662 C   0  0  0  0  0  0  0  0  0  0  0  0
    7.5803   -4.7374    0.5583 C   0  0  0  0  0  0  0  0  0  0  0  0
    6.7412   -5.4248    1.4385 C   0  0  0  0  0  0  0  0  0  0  0  0
    5.3630   -5.2243    1.3824 C   0  0  0  0  0  0  0  0  0  0  0  0
    7.3134   -6.3620    2.4272 C   0  0  0  0  0  0  0  0  0  0  0  0
    6.5826   -6.9587    3.1922 O   0  0  0  0  0  0  0  0  0  0  0  0
    3.9016   -1.3742    0.2007 S   0  0  0  0  0  0  0  0  0  0  0  0
    0.6191   -3.5154    0.2397 C   0  0  0  0  0  0  0  0  0  0  0  0
   -1.8402    1.3693   -2.4918 C   0  0  0  0  0  0  0  0  0  0  0  0
   -1.1566    1.3091   -3.8593 C   0  0  0  0  0  0  0  0  0  0  0  0
   -2.2762   -0.0375   -2.0773 C   0  0  0  0  0  0  0  0  0  0  0  0
   -2.3573    3.7233   -1.0245 O   0  0  0  0  0  0  0  0  0  0  0  0
   -2.6107    4.9180   -0.2826 C   0  0  0  0  0  0  0  0  0  0  0  0
    2.5409    4.1985    0.9372 H   0  0  0  0  0  0  0  0  0  0  0  0
    1.2966    4.0407    2.2002 H   0  0  0  0  0  0  0  0  0  0  0  0
    2.4167    2.6946    1.8812 H   0  0  0  0  0  0  0  0  0  0  0  0
   -0.5425    4.5039    0.6908 H   0  0  0  0  0  0  0  0  0  0  0  0
    0.5467    0.3537   -1.7596 H   0  0  0  0  0  0  0  0  0  0  0  0
    3.3851    1.6483    0.1039 H   0  0  0  0  0  0  0  0  0  0  0  0
    5.2729   -2.9776   -1.1602 H   0  0  0  0  0  0  0  0  0  0  0  0
    7.7010   -3.3323   -1.0445 H   0  0  0  0  0  0  0  0  0  0  0  0
    8.6483   -4.8922    0.6006 H   0  0  0  0  0  0  0  0  0  0  0  0
    4.7097   -5.7529    2.0608 H   0  0  0  0  0  0  0  0  0  0  0  0
   -0.3485   -3.0183    0.1708 H   0  0  0  0  0  0  0  0  0  0  0  0
    0.7373   -4.1985   -0.6015 H   0  0  0  0  0  0  0  0  0  0  0  0
    0.6741   -4.0756    1.1731 H   0  0  0  0  0  0  0  0  0  0  0  0
   -2.7141    2.0180   -2.5507 H   0  0  0  0  0  0  0  0  0  0  0  0
   -0.8460    2.3113   -4.1546 H   0  0  0  0  0  0  0  0  0  0  0  0
   -0.2826    0.6604   -3.8004 H   0  0  0  0  0  0  0  0  0  0  0  0
   -1.8542    0.9128   -4.5971 H   0  0  0  0  0  0  0  0  0  0  0  0
   -2.7632    0.0054   -1.1031 H   0  0  0  0  0  0  0  0  0  0  0  0
   -2.9738   -0.4338   -2.8151 H   0  0  0  0  0  0  0  0  0  0  0  0
   -1.4022   -0.6862   -2.0184 H   0  0  0  0  0  0  0  0  0  0  0  0
   -3.5775    5.3285   -0.5740 H   0  0  0  0  0  0  0  0  0  0  0  0
   -2.6195    4.6891    0.7830 H   0  0  0  0  0  0  0  0  0  0  0  0
   -1.8284    5.6479   -0.4910 H   0  0  0  0  0  0  0  0  0  0  0  0
    8.6456   -6.5546    2.4802 O   0  5  0  0  0  0  0  0  0  0  0  0
  1  2  1  0  0  0  0
  1 30  1  0  0  0  0
  1 31  1  0  0  0  0
  1 32  1  0  0  0  0
  2  7  2  0  0  0  0
  2  3  1  0  0  0  0
  3  4  2  0  0  0  0
  3 33  1  0  0  0  0
  4  5  1  0  0  0  0
  4 28  1  0  0  0  0
  5  6  2  0  0  0  0
  5 25  1  0  0  0  0
  6  7  1  0  0  0  0
  6 34  1  0  0  0  0
  7  8  1  0  0  0  0
  8  9  2  0  0  0  0
  8 35  1  0  0  0  0
  9 23  1  0  0  0  0
  9 10  1  0  0  0  0
 10 11  2  0  0  0  0
 10 12  1  0  0  0  0
 12 13  1  0  0  0  0
 12 24  1  0  0  0  0
 13 14  2  0  0  0  0
 13 23  1  0  0  0  0
 14 15  1  0  0  0  0
 15 20  2  0  0  0  0
 15 16  1  0  0  0  0
 16 17  2  0  0  0  0
 16 36  1  0  0  0  0
 17 18  1  0  0  0  0
 17 37  1  0  0  0  0
 18 19  2  0  0  0  0
 18 38  1  0  0  0  0
 19 20  1  0  0  0  0
 19 21  1  0  0  0  0
 20 39  1  0  0  0  0
 21 22  2  0  0  0  0
 21 53  1  0  0  0  0
 24 40  1  0  0  0  0
 24 41  1  0  0  0  0
 24 42  1  0  0  0  0
 25 26  1  0  0  0  0
 25 27  1  0  0  0  0
 25 43  1  0  0  0  0
 26 44  1  0  0  0  0
 26 45  1  0  0  0  0
 26 46  1  0  0  0  0
 27 47  1  0  0  0  0
 27 48  1  0  0  0  0
 27 49  1  0  0  0  0
 28 29  1  0  0  0  0
 29 50  1  0  0  0  0
 29 51  1  0  0  0  0
 29 52  1  0  0  0  0
M  CHG  1  53  -1
M  END
$$$$
ZINC03980015
  -OEChem-08230709463D

 53 55  0     0  0  0  0  0  0999 V2000
   -0.8518    3.7991   -1.4538 C   0  0  0  0  0  0  0  0  0  0  0  0
   -0.4340    3.2052   -0.1814 N   0  0  0  0  0  0  0  0  0  0  0  0
   -0.4512    4.0094    1.0430 C   0  0  0  0  0  0  0  0  0  0  0  0
   -0.0192    1.8723   -0.1357 C   0  0  0  0  0  0  0  0  0  0  0  0
   -0.0023    1.1083   -1.2957 C   0  0  0  0  0  0  0  0  0  0  0  0
    0.4089   -0.2092   -1.2470 C   0  0  0  0  0  0  0  0  0  0  0  0
    0.8029   -0.7682   -0.0452 C   0  0  0  0  0  0  0  0  0  0  0  0
    0.7873   -0.0105    1.1115 C   0  0  0  0  0  0  0  0  0  0  0  0
    0.3773    1.3076    1.0699 C   0  0  0  0  0  0  0  0  0  0  0  0
    1.2500   -2.2065    0.0043 C   0  0  0  0  0  0  0  0  0  0  0  0
    2.2343   -2.3882    1.1309 C   0  0  0  0  0  0  0  0  0  0  0  0
    3.4202   -1.6752    1.1309 C   0  0  0  0  0  0  0  0  0  0  0  0
    4.3234   -1.8330    2.1615 C   0  0  0  0  0  0  0  0  0  0  0  0
    4.0436   -2.7227    3.2006 C   0  0  0  0  0  0  0  0  0  0  0  0
    2.8475   -3.4429    3.1915 C   0  0  0  0  0  0  0  0  0  0  0  0
    1.9507   -3.2715    2.1575 C   0  0  0  0  0  0  0  0  0  0  0  0
    5.0085   -2.9007    4.3050 C   0  0  0  0  0  0  0  0  0  0  0  0
    4.7622   -3.6751    5.2078 O   0  0  0  0  0  0  0  0  0  0  0  0
    1.9074   -2.5734   -1.3012 C   0  0  0  0  0  0  0  0  0  0  0  0
    2.8808   -1.7512   -1.8384 C   0  0  0  0  0  0  0  0  0  0  0  0
    3.4887   -2.0869   -3.0322 C   0  0  0  0  0  0  0  0  0  0  0  0
    3.1137   -3.2466   -3.6987 C   0  0  0  0  0  0  0  0  0  0  0  0
    2.1318   -4.0675   -3.1589 C   0  0  0  0  0  0  0  0  0  0  0  0
    1.5317   -3.7286   -1.9621 C   0  0  0  0  0  0  0  0  0  0  0  0
    3.7230   -3.5866   -4.9087 N   0  0  0  0  0  0  0  0  0  0  0  0
    3.4189   -4.8698   -5.5467 C   0  0  0  0  0  0  0  0  0  0  0  0
    4.6662   -2.6600   -5.5397 C   0  0  0  0  0  0  0  0  0  0  0  0
   -1.9233    3.6514   -1.5892 H   0  0  0  0  0  0  0  0  0  0  0  0
   -0.6302    4.8663   -1.4468 H   0  0  0  0  0  0  0  0  0  0  0  0
   -0.3129    3.3214   -2.2721 H   0  0  0  0  0  0  0  0  0  0  0  0
    0.5554    4.0610    1.4580 H   0  0  0  0  0  0  0  0  0  0  0  0
   -0.8009    5.0156    0.8119 H   0  0  0  0  0  0  0  0  0  0  0  0
   -1.1209    3.5501    1.7700 H   0  0  0  0  0  0  0  0  0  0  0  0
   -0.3060    1.5454   -2.2354 H   0  0  0  0  0  0  0  0  0  0  0  0
    0.4223   -0.8038   -2.1486 H   0  0  0  0  0  0  0  0  0  0  0  0
    1.0957   -0.4502    2.0485 H   0  0  0  0  0  0  0  0  0  0  0  0
    0.3647    1.8986    1.9738 H   0  0  0  0  0  0  0  0  0  0  0  0
    0.3859   -2.8501    0.1695 H   0  0  0  0  0  0  0  0  0  0  0  0
    3.6372   -0.9904    0.3244 H   0  0  0  0  0  0  0  0  0  0  0  0
    5.2466   -1.2726    2.1627 H   0  0  0  0  0  0  0  0  0  0  0  0
    2.6247   -4.1324    3.9924 H   0  0  0  0  0  0  0  0  0  0  0  0
    1.0250   -3.8277    2.1493 H   0  0  0  0  0  0  0  0  0  0  0  0
    3.1687   -0.8474   -1.3220 H   0  0  0  0  0  0  0  0  0  0  0  0
    4.2521   -1.4466   -3.4490 H   0  0  0  0  0  0  0  0  0  0  0  0
    1.8377   -4.9697   -3.6747 H   0  0  0  0  0  0  0  0  0  0  0  0
    0.7684   -4.3666   -1.5417 H   0  0  0  0  0  0  0  0  0  0  0  0
    2.5689   -4.7492   -6.2184 H   0  0  0  0  0  0  0  0  0  0  0  0
    4.2857   -5.2076   -6.1148 H   0  0  0  0  0  0  0  0  0  0  0  0
    3.1759   -5.6073   -4.7819 H   0  0  0  0  0  0  0  0  0  0  0  0
    4.8261   -1.8029   -4.8856 H   0  0  0  0  0  0  0  0  0  0  0  0
    5.6150   -3.1683   -5.7113 H   0  0  0  0  0  0  0  0  0  0  0  0
    4.2590   -2.3195   -6.4917 H   0  0  0  0  0  0  0  0  0  0  0  0
    6.1616   -2.2043    4.3108 O   0  5  0  0  0  0  0  0  0  0  0  0
  1  2  1  0  0  0  0
  1 28  1  0  0  0  0
  1 29  1  0  0  0  0
  1 30  1  0  0  0  0
  2  3  1  0  0  0  0
  2  4  1  0  0  0  0
  3 31  1  0  0  0  0
  3 32  1  0  0  0  0
  3 33  1  0  0  0  0
  4  9  2  0  0  0  0
  4  5  1  0  0  0  0
  5  6  2  0  0  0  0
  5 34  1  0  0  0  0
  6  7  1  0  0  0  0
  6 35  1  0  0  0  0
  7  8  2  0  0  0  0
  7 10  1  0  0  0  0
  8  9  1  0  0  0  0
  8 36  1  0  0  0  0
  9 37  1  0  0  0  0
 10 11  1  0  0  0  0
 10 19  1  0  0  0  0
 10 38  1  0  0  0  0
 11 16  2  0  0  0  0
 11 12  1  0  0  0  0
 12 13  2  0  0  0  0
 12 39  1  0  0  0  0
 13 14  1  0  0  0  0
 13 40  1  0  0  0  0
 14 15  2  0  0  0  0
 14 17  1  0  0  0  0
 15 16  1  0  0  0  0
 15 41  1  0  0  0  0
 16 42  1  0  0  0  0
 17 18  2  0  0  0  0
 17 53  1  0  0  0  0
 19 24  2  0  0  0  0
 19 20  1  0  0  0  0
 20 21  2  0  0  0  0
 20 43  1  0  0  0  0
 21 22  1  0  0  0  0
 21 44  1  0  0  0  0
 22 23  2  0  0  0  0
 22 25  1  0  0  0  0
 23 24  1  0  0  0  0
 23 45  1  0  0  0  0
 24 46  1  0  0  0  0
 25 26  1  0  0  0  0
 25 27  1  0  0  0  0
 26 47  1  0  0  0  0
 26 48  1  0  0  0  0
 26 49  1  0  0  0  0
 27 50  1  0  0  0  0
 27 51  1  0  0  0  0
 27 52  1  0  0  0  0
M  CHG  1  53  -1
M  END
$$$$
ZINC03982849
  -OEChem-08230709463D

 54 56  0     0  0  0  0  0  0999 V2000
   -2.5365    1.4105   -0.0563 C   0  0  0  0  0  0  0  0  0  0  0  0
   -1.2212    2.1459   -0.0658 C   0  0  0  0  0  0  0  0  0  0  0  0
   -1.1982    3.5082   -0.0777 C   0  0  0  0  0  0  0  0  0  0  0  0
    0.0091    4.2019   -0.0811 C   0  0  0  0  0  0  0  0  0  0  0  0
    1.1991    3.5398   -0.0793 C   0  0  0  0  0  0  0  0  0  0  0  0
    1.2155    2.1349   -0.0734 C   0  0  0  0  0  0  0  0  0  0  0  0
   -0.0138    1.4316   -0.0696 C   0  0  0  0  0  0  0  0  0  0  0  0
    0.0018    0.0211   -0.0638 C   0  0  0  0  0  0  0  0  0  0  0  0
    1.2078   -0.6111   -0.0621 C   0  0  0  0  0  0  0  0  0  0  0  0
    2.3918    0.1418   -0.0660 C   0  0  0  0  0  0  0  0  0  0  0  0
    2.3706    1.4596   -0.0710 N   0  0  0  0  0  0  0  0  0  0  0  0
    3.9430   -0.6938   -0.0637 S   0  0  0  0  0  0  0  0  0  0  0  0
    5.0651    0.7264   -0.0704 C   0  0  0  0  0  0  0  0  0  0  0  0
    6.4914    0.2397   -0.0694 C   0  0  0  0  0  0  0  0  0  0  0  0
    6.7261   -0.9502   -0.0646 O   0  0  0  0  0  0  0  0  0  0  0  0
    7.5061    1.1267   -0.0738 N   0  0  0  0  0  0  0  0  0  0  0  0
    8.8231    0.6797    0.0218 C   0  0  0  0  0  0  0  0  0  0  0  0
    9.1978   -0.5126   -0.5782 C   0  0  0  0  0  0  0  0  0  0  0  0
   10.5066   -0.9567   -0.4831 C   0  0  0  0  0  0  0  0  0  0  0  0
   11.4547   -0.2078    0.2163 C   0  0  0  0  0  0  0  0  0  0  0  0
   11.0940    0.9795    0.8178 C   0  0  0  0  0  0  0  0  0  0  0  0
    9.7751    1.4385    0.7211 C   0  0  0  0  0  0  0  0  0  0  0  0
    9.3865    2.7079    1.3554 C   0  0  0  0  0  0  0  0  0  0  0  0
    8.2215    3.0545    1.3578 O   0  0  0  0  0  0  0  0  0  0  0  0
   12.7380   -0.6508    0.3052 O   0  0  0  0  0  0  0  0  0  0  0  0
   13.6567    0.1644    1.0356 C   0  0  0  0  0  0  0  0  0  0  0  0
   10.8686   -2.1253   -1.0721 O   0  0  0  0  0  0  0  0  0  0  0  0
    9.8494   -2.8423   -1.7715 C   0  0  0  0  0  0  0  0  0  0  0  0
    1.2708   -2.1168   -0.0564 C   0  0  0  0  0  0  0  0  0  0  0  0
    2.4937    4.3112   -0.0830 C   0  0  0  0  0  0  0  0  0  0  0  0
   -2.8482    1.2368    0.9736 H   0  0  0  0  0  0  0  0  0  0  0  0
   -3.2906    2.0081   -0.5683 H   0  0  0  0  0  0  0  0  0  0  0  0
   -2.4220    0.4545   -0.5673 H   0  0  0  0  0  0  0  0  0  0  0  0
   -2.1284    4.0571   -0.0800 H   0  0  0  0  0  0  0  0  0  0  0  0
    0.0016    5.2819   -0.0856 H   0  0  0  0  0  0  0  0  0  0  0  0
   -0.9192   -0.5429   -0.0612 H   0  0  0  0  0  0  0  0  0  0  0  0
    4.8865    1.3263   -0.9627 H   0  0  0  0  0  0  0  0  0  0  0  0
    4.8878    1.3337    0.8172 H   0  0  0  0  0  0  0  0  0  0  0  0
    7.3200    2.0761   -0.1434 H   0  0  0  0  0  0  0  0  0  0  0  0
    8.4683   -1.0961   -1.1202 H   0  0  0  0  0  0  0  0  0  0  0  0
   11.8292    1.5569    1.3586 H   0  0  0  0  0  0  0  0  0  0  0  0
   14.6416   -0.3026    1.0290 H   0  0  0  0  0  0  0  0  0  0  0  0
   13.7181    1.1485    0.5709 H   0  0  0  0  0  0  0  0  0  0  0  0
   13.3112    0.2692    2.0641 H   0  0  0  0  0  0  0  0  0  0  0  0
   10.2712   -3.7546   -2.1934 H   0  0  0  0  0  0  0  0  0  0  0  0
    9.0464   -3.0990   -1.0805 H   0  0  0  0  0  0  0  0  0  0  0  0
    9.4531   -2.2203   -2.5741 H   0  0  0  0  0  0  0  0  0  0  0  0
    1.2854   -2.4837   -1.0827 H   0  0  0  0  0  0  0  0  0  0  0  0
    2.1754   -2.4407    0.4581 H   0  0  0  0  0  0  0  0  0  0  0  0
    0.3970   -2.5150    0.4594 H   0  0  0  0  0  0  0  0  0  0  0  0
    2.8054    4.4929   -1.1115 H   0  0  0  0  0  0  0  0  0  0  0  0
    2.3504    5.2638    0.4269 H   0  0  0  0  0  0  0  0  0  0  0  0
    3.2616    3.7348    0.4329 H   0  0  0  0  0  0  0  0  0  0  0  0
   10.3224    3.4865    1.9339 O   0  5  0  0  0  0  0  0  0  0  0  0
  1  2  1  0  0  0  0
  1 31  1  0  0  0  0
  1 32  1  0  0  0  0
  1 33  1  0  0  0  0
  2  7  2  0  0  0  0
  2  3  1  0  0  0  0
  3  4  2  0  0  0  0
  3 34  1  0  0  0  0
  4  5  1  0  0  0  0
  4 35  1  0  0  0  0
  5  6  2  0  0  0  0
  5 30  1  0  0  0  0
  6 11  1  0  0  0  0
  6  7  1  0  0  0  0
  7  8  1  0  0  0  0
  8  9  2  0  0  0  0
  8 36  1  0  0  0  0
  9 10  1  0  0  0  0
  9 29  1  0  0  0  0
 10 11  2  0  0  0  0
 10 12  1  0  0  0  0
 12 13  1  0  0  0  0
 13 14  1  0  0  0  0
 13 37  1  0  0  0  0
 13 38  1  0  0  0  0
 14 15  2  0  0  0  0
 14 16  1  0  0  0  0
 16 17  1  0  0  0  0
 16 39  1  0  0  0  0
 17 22  2  0  0  0  0
 17 18  1  0  0  0  0
 18 19  2  0  0  0  0
 18 40  1  0  0  0  0
 19 20  1  0  0  0  0
 19 27  1  0  0  0  0
 20 21  2  0  0  0  0
 20 25  1  0  0  0  0
 21 22  1  0  0  0  0
 21 41  1  0  0  0  0
 22 23  1  0  0  0  0
 23 24  2  0  0  0  0
 23 54  1  0  0  0  0
 25 26  1  0  0  0  0
 26 42  1  0  0  0  0
 26 43  1  0  0  0  0
 26 44  1  0  0  0  0
 27 28  1  0  0  0  0
 28 45  1  0  0  0  0
 28 46  1  0  0  0  0
 28 47  1  0  0  0  0
 29 48  1  0  0  0  0
 29 49  1  0  0  0  0
 29 50  1  0  0  0  0
 30 51  1  0  0  0  0
 30 52  1  0  0  0  0
 30 53  1  0  0  0  0
M  CHG  1  54  -1
M  END
$$$$
ZINC03983129
  -OEChem-08230709463D

 52 54  0     0  0  0  0  0  0999 V2000
    2.3080    3.0020  -13.5800 C   0  0  0  0  0  0  0  0  0  0  0  0
    0.8769    3.3046  -13.1316 C   0  0  0  0  0  0  0  0  0  0  0  0
   -0.0961    2.3918  -13.8807 C   0  0  0  0  0  0  0  0  0  0  0  0
    0.7511    3.0585  -11.6268 C   0  0  0  0  0  0  0  0  0  0  0  0
   -0.5506    3.4514  -11.1870 O   0  0  0  0  0  0  0  0  0  0  0  0
   -0.8278    3.2970   -9.8676 C   0  0  0  0  0  0  0  0  0  0  0  0
   -2.0758    3.6597   -9.3744 C   0  0  0  0  0  0  0  0  0  0  0  0
   -2.3609    3.5051   -8.0362 C   0  0  0  0  0  0  0  0  0  0  0  0
   -1.3937    2.9821   -7.1735 C   0  0  0  0  0  0  0  0  0  0  0  0
   -0.1385    2.6231   -7.6725 C   0  0  0  0  0  0  0  0  0  0  0  0
    0.1368    2.7760   -9.0130 C   0  0  0  0  0  0  0  0  0  0  0  0
   -1.6948    2.8151   -5.7388 C   0  0  0  0  0  0  0  0  0  0  0  0
   -2.7856    3.1327   -5.3055 O   0  0  0  0  0  0  0  0  0  0  0  0
   -0.7607    2.3106   -4.9085 N   0  0  0  0  0  0  0  0  0  0  0  0
   -1.0433    2.1539   -3.5618 C   0  0  0  0  0  0  0  0  0  0  0  0
   -0.2190    1.6564   -2.5585 C   0  0  0  0  0  0  0  0  0  0  0  0
   -0.7638    1.5976   -1.2157 C   0  0  0  0  0  0  0  0  0  0  0  0
   -2.0356    2.0407   -1.0876 C   0  0  0  0  0  0  0  0  0  0  0  0
   -2.5099    2.5310   -2.7184 S   0  0  0  0  0  0  0  0  0  0  0  0
   -2.8296    2.0861    0.1803 C   0  0  0  0  0  0  0  0  0  0  0  0
   -2.1413    1.2927    1.1604 O   0  0  0  0  0  0  0  0  0  0  0  0
   -0.7439    1.5869    1.2577 C   0  0  0  0  0  0  0  0  0  0  0  0
   -0.0127    1.0858    0.0080 C   0  0  0  0  0  0  0  0  0  0  0  0
   -0.1640    0.8986    2.4949 C   0  0  0  0  0  0  0  0  0  0  0  0
   -0.5517    3.0994    1.3854 C   0  0  0  0  0  0  0  0  0  0  0  0
    1.1450    1.2089   -2.8465 C   0  0  0  0  0  0  0  0  0  0  0  0
    1.3529    0.0505   -3.1542 O   0  0  0  0  0  0  0  0  0  0  0  0
    2.5449    1.9608  -13.3611 H   0  0  0  0  0  0  0  0  0  0  0  0
    2.3976    3.1773  -14.6521 H   0  0  0  0  0  0  0  0  0  0  0  0
    3.0012    3.6522  -13.0463 H   0  0  0  0  0  0  0  0  0  0  0  0
    0.6400    4.3458  -13.3506 H   0  0  0  0  0  0  0  0  0  0  0  0
   -0.0065    2.5671  -14.9528 H   0  0  0  0  0  0  0  0  0  0  0  0
    0.1408    1.3506  -13.6618 H   0  0  0  0  0  0  0  0  0  0  0  0
   -1.1157    2.6074  -13.5613 H   0  0  0  0  0  0  0  0  0  0  0  0
    1.5047    3.6429  -11.0988 H   0  0  0  0  0  0  0  0  0  0  0  0
    0.9007    1.9992  -11.4181 H   0  0  0  0  0  0  0  0  0  0  0  0
   -2.8227    4.0638  -10.0418 H   0  0  0  0  0  0  0  0  0  0  0  0
   -3.3308    3.7872   -7.6539 H   0  0  0  0  0  0  0  0  0  0  0  0
    0.6130    2.2224   -7.0084 H   0  0  0  0  0  0  0  0  0  0  0  0
    1.1050    2.4947   -9.4002 H   0  0  0  0  0  0  0  0  0  0  0  0
    0.1095    2.0573   -5.2541 H   0  0  0  0  0  0  0  0  0  0  0  0
   -2.9093    3.1157    0.5290 H   0  0  0  0  0  0  0  0  0  0  0  0
   -3.8252    1.6774    0.0068 H   0  0  0  0  0  0  0  0  0  0  0  0
    0.0021   -0.0041    0.0020 H   0  0  0  0  0  0  0  0  0  0  0  0
    1.0080    1.4681    0.0003 H   0  0  0  0  0  0  0  0  0  0  0  0
    0.8978    1.1315    2.5760 H   0  0  0  0  0  0  0  0  0  0  0  0
   -0.6830    1.2538    3.3851 H   0  0  0  0  0  0  0  0  0  0  0  0
   -0.2935   -0.1799    2.4049 H   0  0  0  0  0  0  0  0  0  0  0  0
   -0.9583    3.5932    0.5028 H   0  0  0  0  0  0  0  0  0  0  0  0
   -1.0713    3.4580    2.2740 H   0  0  0  0  0  0  0  0  0  0  0  0
    0.5114    3.3247    1.4704 H   0  0  0  0  0  0  0  0  0  0  0  0
    2.1711    2.0811   -2.7706 O   0  5  0  0  0  0  0  0  0  0  0  0
  1  2  1  0  0  0  0
  1 28  1  0  0  0  0
  1 29  1  0  0  0  0
  1 30  1  0  0  0  0
  2  3  1  0  0  0  0
  2  4  1  0  0  0  0
  2 31  1  0  0  0  0
  3 32  1  0  0  0  0
  3 33  1  0  0  0  0
  3 34  1  0  0  0  0
  4  5  1  0  0  0  0
  4 35  1  0  0  0  0
  4 36  1  0  0  0  0
  5  6  1  0  0  0  0
  6 11  2  0  0  0  0
  6  7  1  0  0  0  0
  7  8  2  0  0  0  0
  7 37  1  0  0  0  0
  8  9  1  0  0  0  0
  8 38  1  0  0  0  0
  9 10  2  0  0  0  0
  9 12  1  0  0  0  0
 10 11  1  0  0  0  0
 10 39  1  0  0  0  0
 11 40  1  0  0  0  0
 12 13  2  0  0  0  0
 12 14  1  0  0  0  0
 14 15  1  0  0  0  0
 14 41  1  0  0  0  0
 15 19  1  0  0  0  0
 15 16  2  0  0  0  0
 16 17  1  0  0  0  0
 16 26  1  0  0  0  0
 17 23  1  0  0  0  0
 17 18  2  0  0  0  0
 18 19  1  0  0  0  0
 18 20  1  0  0  0  0
 20 21  1  0  0  0  0
 20 42  1  0  0  0  0
 20 43  1  0  0  0  0
 21 22  1  0  0  0  0
 22 23  1  0  0  0  0
 22 24  1  0  0  0  0
 22 25  1  0  0  0  0
 23 44  1  0  0  0  0
 23 45  1  0  0  0  0
 24 46  1  0  0  0  0
 24 47  1  0  0  0  0
 24 48  1  0  0  0  0
 25 49  1  0  0  0  0
 25 50  1  0  0  0  0
 25 51  1  0  0  0  0
 26 27  2  0  0  0  0
 26 52  1  0  0  0  0
M  CHG  1  52  -1
M  END
$$$$
ZINC03983154
  -OEChem-08230709463D

 54 56  0     1  0  0  0  0  0999 V2000
    5.2072    6.3177    3.2811 C   0  0  0  0  0  0  0  0  0  0  0  0
    5.1161    4.9792    2.5455 C   0  0  0  0  0  0  0  0  0  0  0  0
    4.0911    5.0593    1.5201 O   0  0  0  0  0  0  0  0  0  0  0  0
    3.8829    3.9545    0.7749 C   0  0  0  0  0  0  0  0  0  0  0  0
    4.5407    2.9515    0.9771 O   0  0  0  0  0  0  0  0  0  0  0  0
    2.8649    3.9625   -0.2777 C   0  0  0  0  0  0  0  0  0  0  0  0
    1.4804    3.5691    0.0112 C   0  0  0  0  0  0  0  0  0  0  0  0
    0.6792    3.5651   -1.0697 C   0  0  0  0  0  0  0  0  0  0  0  0
    1.6818    4.1548   -2.4091 S   0  0  0  0  0  0  0  0  0  0  0  0
    3.1832    4.3412   -1.5689 C   0  0  0  0  0  0  0  0  0  0  0  0
    4.4048    4.7658   -2.0678 N   0  0  0  0  0  0  0  0  0  0  0  0
    4.5232    5.0962   -3.3690 C   0  0  0  0  0  0  0  0  0  0  0  0
    3.5610    5.0220   -4.1035 O   0  0  0  0  0  0  0  0  0  0  0  0
    5.8513    5.5579   -3.9114 C   0  0  2  0  0  0  0  0  0  0  0  0
    6.5980    4.7774   -3.7650 H   0  0  0  0  0  0  0  0  0  0  0  0
    6.2865    6.8344   -3.1884 C   0  0  0  0  0  0  0  0  0  0  0  0
    7.4620    7.4501   -3.8891 C   0  0  0  0  0  0  0  0  0  0  0  0
    7.8180    7.1606   -5.0995 C   0  0  0  0  0  0  0  0  0  0  0  0
    7.1109    6.1615   -5.9677 C   0  0  0  0  0  0  0  0  0  0  0  0
    5.7172    5.8693   -5.4074 C   0  0  1  0  0  0  0  0  0  0  0  0
    5.0771    6.7408   -5.5443 H   0  0  0  0  0  0  0  0  0  0  0  0
    5.1183    4.6840   -6.1198 C   0  0  0  0  0  0  0  0  0  0  0  0
    4.8269    3.6896   -5.4984 O   0  0  0  0  0  0  0  0  0  0  0  0
   -0.7622    3.1509   -1.1618 C   0  0  0  0  0  0  0  0  0  0  0  0
   -0.7917    1.6123   -1.2023 C   0  0  0  0  0  0  0  0  0  0  0  0
   -0.0127    1.0858    0.0080 C   0  0  0  0  0  0  0  0  0  0  0  0
   -0.7595    1.5931    1.2241 C   0  0  0  0  0  0  0  0  0  0  0  0
   -0.4042    3.0152    1.6158 C   0  0  0  0  0  0  0  0  0  0  0  0
    1.0846    3.2969    1.4614 C   0  0  0  0  0  0  0  0  0  0  0  0
    5.9767    6.2576    4.0508 H   0  0  0  0  0  0  0  0  0  0  0  0
    5.4631    7.1051    2.5722 H   0  0  0  0  0  0  0  0  0  0  0  0
    4.2468    6.5438    3.7443 H   0  0  0  0  0  0  0  0  0  0  0  0
    4.8602    4.1917    3.2543 H   0  0  0  0  0  0  0  0  0  0  0  0
    6.0765    4.7531    2.0823 H   0  0  0  0  0  0  0  0  0  0  0  0
    5.1744    4.8252   -1.4803 H   0  0  0  0  0  0  0  0  0  0  0  0
    5.4592    7.5441   -3.1788 H   0  0  0  0  0  0  0  0  0  0  0  0
    6.5637    6.5920   -2.1625 H   0  0  0  0  0  0  0  0  0  0  0  0
    8.0472    8.1804   -3.3501 H   0  0  0  0  0  0  0  0  0  0  0  0
    8.6775    7.6696   -5.5100 H   0  0  0  0  0  0  0  0  0  0  0  0
    7.6885    5.2377   -5.9995 H   0  0  0  0  0  0  0  0  0  0  0  0
    7.0176    6.5642   -6.9763 H   0  0  0  0  0  0  0  0  0  0  0  0
   -1.2071    3.5549   -2.0711 H   0  0  0  0  0  0  0  0  0  0  0  0
   -1.3080    3.5098   -0.2892 H   0  0  0  0  0  0  0  0  0  0  0  0
   -0.3246    1.2597   -2.1219 H   0  0  0  0  0  0  0  0  0  0  0  0
   -1.8230    1.2624   -1.1563 H   0  0  0  0  0  0  0  0  0  0  0  0
    0.0021   -0.0041    0.0020 H   0  0  0  0  0  0  0  0  0  0  0  0
    1.0050    1.4762    0.0004 H   0  0  0  0  0  0  0  0  0  0  0  0
   -1.8291    1.5488    1.0189 H   0  0  0  0  0  0  0  0  0  0  0  0
   -0.5424    0.9347    2.0652 H   0  0  0  0  0  0  0  0  0  0  0  0
   -0.6889    3.1769    2.6554 H   0  0  0  0  0  0  0  0  0  0  0  0
   -0.9625    3.7079    0.9861 H   0  0  0  0  0  0  0  0  0  0  0  0
    1.6460    2.4361    1.8245 H   0  0  0  0  0  0  0  0  0  0  0  0
    1.3423    4.1662    2.0664 H   0  0  0  0  0  0  0  0  0  0  0  0
    4.9086    4.7331   -7.4447 O   0  5  0  0  0  0  0  0  0  0  0  0
  1  2  1  0  0  0  0
  1 30  1  0  0  0  0
  1 31  1  0  0  0  0
  1 32  1  0  0  0  0
  2  3  1  0  0  0  0
  2 33  1  0  0  0  0
  2 34  1  0  0  0  0
  3  4  1  0  0  0  0
  4  5  2  0  0  0  0
  4  6  1  0  0  0  0
  6 10  2  0  0  0  0
  6  7  1  0  0  0  0
  7 29  1  0  0  0  0
  7  8  2  0  0  0  0
  8  9  1  0  0  0  0
  8 24  1  0  0  0  0
  9 10  1  0  0  0  0
 10 11  1  0  0  0  0
 11 12  1  0  0  0  0
 11 35  1  0  0  0  0
 12 13  2  0  0  0  0
 12 14  1  0  0  0  0
 14 15  1  0  0  0  0
 14 20  1  0  0  0  0
 14 16  1  0  0  0  0
 16 17  1  0  0  0  0
 16 36  1  0  0  0  0
 16 37  1  0  0  0  0
 17 18  2  0  0  0  0
 17 38  1  0  0  0  0
 18 19  1  0  0  0  0
 18 39  1  0  0  0  0
 19 20  1  0  0  0  0
 19 40  1  0  0  0  0
 19 41  1  0  0  0  0
 20 21  1  0  0  0  0
 20 22  1  0  0  0  0
 22 23  2  0  0  0  0
 22 54  1  0  0  0  0
 24 25  1  0  0  0  0
 24 42  1  0  0  0  0
 24 43  1  0  0  0  0
 25 26  1  0  0  0  0
 25 44  1  0  0  0  0
 25 45  1  0  0  0  0
 26 27  1  0  0  0  0
 26 46  1  0  0  0  0
 26 47  1  0  0  0  0
 27 28  1  0  0  0  0
 27 48  1  0  0  0  0
 27 49  1  0  0  0  0
 28 29  1  0  0  0  0
 28 50  1  0  0  0  0
 28 51  1  0  0  0  0
 29 52  1  0  0  0  0
 29 53  1  0  0  0  0
M  CHG  1  54  -1
M  END
$$$$
ZINC03983163
  -OEChem-08230709463D

 51 53  0     1  0  0  0  0  0999 V2000
   -0.0127    1.0858    0.0080 C   0  0  0  0  0  0  0  0  0  0  0  0
   -0.7288    1.5792    1.2668 C   0  0  0  0  0  0  0  0  0  0  0  0
    0.0000    1.0800    2.4877 C   0  0  0  0  0  0  0  0  0  0  0  0
    0.9885    1.7941    3.0547 C   0  0  0  0  0  0  0  0  0  0  0  0
    1.4944    0.7775    4.4265 S   0  0  0  0  0  0  0  0  0  0  0  0
    0.4019   -0.5501    4.2212 C   0  0  0  0  0  0  0  0  0  0  0  0
   -0.3374   -0.1825    3.1018 C   0  0  0  0  0  0  0  0  0  0  0  0
   -1.4016   -1.0360    2.5695 C   0  0  0  0  0  0  0  0  0  0  0  0
   -1.1435   -1.8781    1.7306 O   0  0  0  0  0  0  0  0  0  0  0  0
   -2.6681   -0.8883    3.0094 O   0  0  0  0  0  0  0  0  0  0  0  0
   -3.6714   -1.7686    2.4377 C   0  0  0  0  0  0  0  0  0  0  0  0
   -4.7753   -2.0200    3.4668 C   0  0  0  0  0  0  0  0  0  0  0  0
   -4.2741   -1.1144    1.1928 C   0  0  0  0  0  0  0  0  0  0  0  0
    0.2878   -1.6981    4.9896 N   0  0  0  0  0  0  0  0  0  0  0  0
    1.0963   -1.8808    6.0523 C   0  0  0  0  0  0  0  0  0  0  0  0
    1.9236   -1.0407    6.3364 O   0  0  0  0  0  0  0  0  0  0  0  0
    0.9722   -3.1289    6.8877 C   0  0  2  0  0  0  0  0  0  0  0  0
   -0.0412   -3.2293    7.2765 H   0  0  0  0  0  0  0  0  0  0  0  0
    2.0093   -3.1133    8.0556 C   0  0  1  0  0  0  0  0  0  0  0  0
    1.7580   -2.4934    8.9162 H   0  0  0  0  0  0  0  0  0  0  0  0
    2.1638   -4.6560    8.3186 C   0  0  0  0  0  0  0  0  0  0  0  0
    2.5946   -4.9582    6.8367 C   0  0  1  0  0  0  0  0  0  0  0  0
    2.8667   -5.9885    6.6072 H   0  0  0  0  0  0  0  0  0  0  0  0
    1.3684   -4.3777    6.0627 C   0  0  1  0  0  0  0  0  0  0  0  0
    1.6542   -4.0931    5.0500 H   0  0  0  0  0  0  0  0  0  0  0  0
    0.2387   -5.3748    6.0353 C   0  0  0  0  0  0  0  0  0  0  0  0
   -0.7946   -5.1330    6.6128 O   0  0  0  0  0  0  0  0  0  0  0  0
    3.6850   -3.8945    6.6598 C   0  0  0  0  0  0  0  0  0  0  0  0
    3.3478   -2.8314    7.3621 C   0  0  0  0  0  0  0  0  0  0  0  0
    1.5366    3.1324    2.6309 C   0  0  0  0  0  0  0  0  0  0  0  0
    0.0021   -0.0041    0.0020 H   0  0  0  0  0  0  0  0  0  0  0  0
    1.0099    1.4631    0.0003 H   0  0  0  0  0  0  0  0  0  0  0  0
   -0.5399    1.4469   -0.8751 H   0  0  0  0  0  0  0  0  0  0  0  0
   -0.7436    2.6691    1.2728 H   0  0  0  0  0  0  0  0  0  0  0  0
   -1.7514    1.2020    1.2746 H   0  0  0  0  0  0  0  0  0  0  0  0
   -3.2087   -2.7163    2.1622 H   0  0  0  0  0  0  0  0  0  0  0  0
   -5.2379   -1.0723    3.7423 H   0  0  0  0  0  0  0  0  0  0  0  0
   -5.5284   -2.6808    3.0376 H   0  0  0  0  0  0  0  0  0  0  0  0
   -4.3459   -2.4861    4.3537 H   0  0  0  0  0  0  0  0  0  0  0  0
   -4.7367   -0.1667    1.4683 H   0  0  0  0  0  0  0  0  0  0  0  0
   -3.4876   -0.9352    0.4596 H   0  0  0  0  0  0  0  0  0  0  0  0
   -5.0272   -1.7752    0.7636 H   0  0  0  0  0  0  0  0  0  0  0  0
   -0.3739   -2.3700    4.7624 H   0  0  0  0  0  0  0  0  0  0  0  0
    2.9525   -4.8802    9.0367 H   0  0  0  0  0  0  0  0  0  0  0  0
    1.2195   -5.1306    8.5856 H   0  0  0  0  0  0  0  0  0  0  0  0
    4.5780   -3.9989    6.0614 H   0  0  0  0  0  0  0  0  0  0  0  0
    3.9174   -1.9169    7.4366 H   0  0  0  0  0  0  0  0  0  0  0  0
    0.9826    3.9268    3.1309 H   0  0  0  0  0  0  0  0  0  0  0  0
    2.5899    3.1966    2.9039 H   0  0  0  0  0  0  0  0  0  0  0  0
    1.4338    3.2417    1.5513 H   0  0  0  0  0  0  0  0  0  0  0  0
    0.3806   -6.5316    5.3694 O   0  5  0  0  0  0  0  0  0  0  0  0
  1  2  1  0  0  0  0
  1 31  1  0  0  0  0
  1 32  1  0  0  0  0
  1 33  1  0  0  0  0
  2  3  1  0  0  0  0
  2 34  1  0  0  0  0
  2 35  1  0  0  0  0
  3  7  1  0  0  0  0
  3  4  2  0  0  0  0
  4  5  1  0  0  0  0
  4 30  1  0  0  0  0
  5  6  1  0  0  0  0
  6  7  2  0  0  0  0
  6 14  1  0  0  0  0
  7  8  1  0  0  0  0
  8  9  2  0  0  0  0
  8 10  1  0  0  0  0
 10 11  1  0  0  0  0
 11 12  1  0  0  0  0
 11 13  1  0  0  0  0
 11 36  1  0  0  0  0
 12 37  1  0  0  0  0
 12 38  1  0  0  0  0
 12 39  1  0  0  0  0
 13 40  1  0  0  0  0
 13 41  1  0  0  0  0
 13 42  1  0  0  0  0
 14 15  1  0  0  0  0
 14 43  1  0  0  0  0
 15 16  2  0  0  0  0
 15 17  1  0  0  0  0
 17 18  1  0  0  0  0
 17 24  1  0  0  0  0
 17 19  1  0  0  0  0
 19 20  1  0  0  0  0
 19 29  1  0  0  0  0
 19 21  1  0  0  0  0
 21 22  1  0  0  0  0
 21 44  1  0  0  0  0
 21 45  1  0  0  0  0
 22 23  1  0  0  0  0
 22 24  1  0  0  0  0
 22 28  1  0  0  0  0
 24 25  1  0  0  0  0
 24 26  1  0  0  0  0
 26 27  2  0  0  0  0
 26 51  1  0  0  0  0
 28 29  2  0  0  0  0
 28 46  1  0  0  0  0
 29 47  1  0  0  0  0
 30 48  1  0  0  0  0
 30 49  1  0  0  0  0
 30 50  1  0  0  0  0
M  CHG  1  51  -1
M  END
$$$$
ZINC03983261
  -OEChem-08230709463D

 58 60  0     1  0  0  0  0  0999 V2000
   11.6361   10.7285   -0.7429 C   0  0  0  0  0  0  0  0  0  0  0  0
   10.8288    9.5825   -0.1896 C   0  0  0  0  0  0  0  0  0  0  0  0
    9.5935    9.4001   -0.5857 C   0  0  0  0  0  0  0  0  0  0  0  0
    8.5417    8.3316   -0.2030 C   0  0  1  0  0  0  0  0  0  0  0  0
    8.8474    7.5784    0.5232 H   0  0  0  0  0  0  0  0  0  0  0  0
    7.3461    9.2432    0.2187 C   0  0  0  0  0  0  0  0  0  0  0  0
    7.4609   10.4769   -0.7072 C   0  0  0  0  0  0  0  0  0  0  0  0
    8.7121   10.1794   -1.5882 C   0  0  2  0  0  0  0  0  0  0  0  0
    9.1673   11.0433   -2.0725 H   0  0  0  0  0  0  0  0  0  0  0  0
    8.2626    9.0281   -2.5383 C   0  0  2  0  0  0  0  0  0  0  0  0
    7.2971    9.2578   -2.9890 H   0  0  0  0  0  0  0  0  0  0  0  0
    8.1478    7.7944   -1.6124 C   0  0  2  0  0  0  0  0  0  0  0  0
    8.8391    7.0136   -1.9298 H   0  0  0  0  0  0  0  0  0  0  0  0
    6.7340    7.2727   -1.6017 C   0  0  0  0  0  0  0  0  0  0  0  0
    5.8169    8.0002   -1.9187 O   0  0  0  0  0  0  0  0  0  0  0  0
    6.4888    5.9978   -1.2398 N   0  0  0  0  0  0  0  0  0  0  0  0
    5.1745    5.5129   -1.2298 N   0  0  0  0  0  0  0  0  0  0  0  0
    4.9293    4.2380   -0.8679 C   0  0  0  0  0  0  0  0  0  0  0  0
    5.8465    3.5106   -0.5509 O   0  0  0  0  0  0  0  0  0  0  0  0
    3.5155    3.7164   -0.8572 C   0  0  0  0  0  0  0  0  0  0  0  0
    3.5153    2.2525   -0.4123 C   0  0  0  0  0  0  0  0  0  0  0  0
    2.0799    1.7229   -0.4014 C   0  0  0  0  0  0  0  0  0  0  0  0
    1.2692    2.4688    0.6603 C   0  0  0  0  0  0  0  0  0  0  0  0
   -0.1662    1.9392    0.6712 C   0  0  0  0  0  0  0  0  0  0  0  0
   -0.1557    0.4439    0.9948 C   0  0  0  0  0  0  0  0  0  0  0  0
    0.6551   -0.3020   -0.0670 C   0  0  0  0  0  0  0  0  0  0  0  0
    2.0905    0.2276   -0.0778 C   0  0  0  0  0  0  0  0  0  0  0  0
    9.2987    8.7911   -3.6066 C   0  0  0  0  0  0  0  0  0  0  0  0
   10.2724    9.5034   -3.6724 O   0  0  0  0  0  0  0  0  0  0  0  0
   11.4426    8.6463    0.8192 C   0  0  0  0  0  0  0  0  0  0  0  0
   11.4972   11.6077   -0.1139 H   0  0  0  0  0  0  0  0  0  0  0  0
   12.6913   10.4556   -0.7581 H   0  0  0  0  0  0  0  0  0  0  0  0
   11.3036   10.9509   -1.7568 H   0  0  0  0  0  0  0  0  0  0  0  0
    7.4434    9.5398    1.2631 H   0  0  0  0  0  0  0  0  0  0  0  0
    6.3981    8.7306    0.0554 H   0  0  0  0  0  0  0  0  0  0  0  0
    7.6147   11.3819   -0.1195 H   0  0  0  0  0  0  0  0  0  0  0  0
    6.5708   10.5737   -1.3290 H   0  0  0  0  0  0  0  0  0  0  0  0
    7.2224    5.4160   -0.9862 H   0  0  0  0  0  0  0  0  0  0  0  0
    4.4409    6.0947   -1.4834 H   0  0  0  0  0  0  0  0  0  0  0  0
    3.0929    3.7916   -1.8592 H   0  0  0  0  0  0  0  0  0  0  0  0
    2.9156    4.3067   -0.1646 H   0  0  0  0  0  0  0  0  0  0  0  0
    3.9379    2.1773    0.5896 H   0  0  0  0  0  0  0  0  0  0  0  0
    4.1152    1.6622   -1.1049 H   0  0  0  0  0  0  0  0  0  0  0  0
    1.6274    1.8796   -1.3806 H   0  0  0  0  0  0  0  0  0  0  0  0
    1.2617    3.5341    0.4298 H   0  0  0  0  0  0  0  0  0  0  0  0
    1.7217    2.3121    1.6395 H   0  0  0  0  0  0  0  0  0  0  0  0
   -0.6187    2.0959   -0.3080 H   0  0  0  0  0  0  0  0  0  0  0  0
   -0.7438    2.4706    1.4275 H   0  0  0  0  0  0  0  0  0  0  0  0
    0.2968    0.2872    1.9739 H   0  0  0  0  0  0  0  0  0  0  0  0
   -1.1783    0.0666    1.0025 H   0  0  0  0  0  0  0  0  0  0  0  0
    0.6626   -1.3673    0.1636 H   0  0  0  0  0  0  0  0  0  0  0  0
    0.2026   -0.1453   -1.0461 H   0  0  0  0  0  0  0  0  0  0  0  0
    2.5430    0.0709    0.9014 H   0  0  0  0  0  0  0  0  0  0  0  0
    2.6681   -0.3038   -0.8342 H   0  0  0  0  0  0  0  0  0  0  0  0
   11.9241    7.8176    0.3001 H   0  0  0  0  0  0  0  0  0  0  0  0
   12.1837    9.1843    1.4104 H   0  0  0  0  0  0  0  0  0  0  0  0
   10.6641    8.2598    1.4770 H   0  0  0  0  0  0  0  0  0  0  0  0
    9.1400    7.7886   -4.4850 O   0  5  0  0  0  0  0  0  0  0  0  0
  1  2  1  0  0  0  0
  1 31  1  0  0  0  0
  1 32  1  0  0  0  0
  1 33  1  0  0  0  0
  2  3  2  0  0  0  0
  2 30  1  0  0  0  0
  3  8  1  0  0  0  0
  3  4  1  0  0  0  0
  4  5  1  0  0  0  0
  4 12  1  0  0  0  0
  4  6  1  0  0  0  0
  6  7  1  0  0  0  0
  6 34  1  0  0  0  0
  6 35  1  0  0  0  0
  7  8  1  0  0  0  0
  7 36  1  0  0  0  0
  7 37  1  0  0  0  0
  8  9  1  0  0  0  0
  8 10  1  0  0  0  0
 10 11  1  0  0  0  0
 10 12  1  0  0  0  0
 10 28  1  0  0  0  0
 12 13  1  0  0  0  0
 12 14  1  0  0  0  0
 14 15  2  0  0  0  0
 14 16  1  0  0  0  0
 16 17  1  0  0  0  0
 16 38  1  0  0  0  0
 17 18  1  0  0  0  0
 17 39  1  0  0  0  0
 18 19  2  0  0  0  0
 18 20  1  0  0  0  0
 20 21  1  0  0  0  0
 20 40  1  0  0  0  0
 20 41  1  0  0  0  0
 21 22  1  0  0  0  0
 21 42  1  0  0  0  0
 21 43  1  0  0  0  0
 22 27  1  0  0  0  0
 22 23  1  0  0  0  0
 22 44  1  0  0  0  0
 23 24  1  0  0  0  0
 23 45  1  0  0  0  0
 23 46  1  0  0  0  0
 24 25  1  0  0  0  0
 24 47  1  0  0  0  0
 24 48  1  0  0  0  0
 25 26  1  0  0  0  0
 25 49  1  0  0  0  0
 25 50  1  0  0  0  0
 26 27  1  0  0  0  0
 26 51  1  0  0  0  0
 26 52  1  0  0  0  0
 27 53  1  0  0  0  0
 27 54  1  0  0  0  0
 28 29  2  0  0  0  0
 28 58  1  0  0  0  0
 30 55  1  0  0  0  0
 30 56  1  0  0  0  0
 30 57  1  0  0  0  0
M  CHG  1  58  -1
M  END
$$$$
ZINC03983401
  -OEChem-08230709463D

 55 57  0     1  0  0  0  0  0999 V2000
   -2.3532   -0.0356   -0.8312 C   0  0  0  0  0  0  0  0  0  0  0  0
   -1.4081   -0.5375    0.2624 C   0  0  0  0  0  0  0  0  0  0  0  0
   -1.3845   -2.0673    0.2534 C   0  0  0  0  0  0  0  0  0  0  0  0
   -1.8969   -0.0429    1.6253 C   0  0  0  0  0  0  0  0  0  0  0  0
    0.0021   -0.0041    0.0020 C   0  0  2  0  0  0  0  0  0  0  0  0
    0.6779   -0.3645    0.7775 H   0  0  0  0  0  0  0  0  0  0  0  0
   -0.0187    1.5271    0.0104 C   0  0  0  0  0  0  0  0  0  0  0  0
    1.4124    2.0676   -0.0003 C   0  0  0  0  0  0  0  0  0  0  0  0
    2.1714    1.4214   -1.1524 C   0  0  0  0  0  0  0  0  0  0  0  0
    3.4019    1.9507   -1.7094 C   0  0  0  0  0  0  0  0  0  0  0  0
    3.9831    1.2645   -2.7527 C   0  0  0  0  0  0  0  0  0  0  0  0
    2.9085   -0.0730   -2.9953 S   0  0  0  0  0  0  0  0  0  0  0  0
    1.7208    0.2855   -1.7325 C   0  0  0  0  0  0  0  0  0  0  0  0
    0.4886   -0.4850   -1.3730 C   0  0  0  0  0  0  0  0  0  0  0  0
    4.0093    3.1813   -1.1772 C   0  0  0  0  0  0  0  0  0  0  0  0
    3.4790    3.7719   -0.2554 O   0  0  0  0  0  0  0  0  0  0  0  0
    5.1530    3.6537   -1.7111 N   0  0  0  0  0  0  0  0  0  0  0  0
    5.7312    4.8250   -1.2046 N   0  0  0  0  0  0  0  0  0  0  0  0
    6.8749    5.2974   -1.7385 C   0  0  0  0  0  0  0  0  0  0  0  0
    7.4037    4.7086   -2.6575 O   0  0  0  0  0  0  0  0  0  0  0  0
    7.4968    6.5574   -1.1936 C   0  0  2  0  0  0  0  0  0  0  0  0
    7.7306    6.4234   -0.1375 H   0  0  0  0  0  0  0  0  0  0  0  0
    6.5248    7.7267   -1.3655 C   0  0  0  0  0  0  0  0  0  0  0  0
    7.2209    9.0243   -1.0759 C   0  0  0  0  0  0  0  0  0  0  0  0
    8.5072    9.1661   -1.0448 C   0  0  0  0  0  0  0  0  0  0  0  0
    9.4821    8.0506   -1.2841 C   0  0  0  0  0  0  0  0  0  0  0  0
    8.7810    6.8759   -1.9697 C   0  0  1  0  0  0  0  0  0  0  0  0
    8.5316    7.1463   -2.9957 H   0  0  0  0  0  0  0  0  0  0  0  0
    9.6854    5.6704   -1.9692 C   0  0  0  0  0  0  0  0  0  0  0  0
    9.3418    4.6577   -1.4067 O   0  0  0  0  0  0  0  0  0  0  0  0
   -2.0050   -0.3879   -1.8021 H   0  0  0  0  0  0  0  0  0  0  0  0
   -3.3578   -0.4156   -0.6457 H   0  0  0  0  0  0  0  0  0  0  0  0
   -2.3700    1.0543   -0.8248 H   0  0  0  0  0  0  0  0  0  0  0  0
   -0.7112   -2.4248    1.0325 H   0  0  0  0  0  0  0  0  0  0  0  0
   -2.3891   -2.4472    0.4389 H   0  0  0  0  0  0  0  0  0  0  0  0
   -1.0363   -2.4196   -0.7175 H   0  0  0  0  0  0  0  0  0  0  0  0
   -1.9137    1.0469    1.6316 H   0  0  0  0  0  0  0  0  0  0  0  0
   -2.9015   -0.4229    1.8107 H   0  0  0  0  0  0  0  0  0  0  0  0
   -1.2236   -0.4005    2.4043 H   0  0  0  0  0  0  0  0  0  0  0  0
   -0.5482    1.8869   -0.8718 H   0  0  0  0  0  0  0  0  0  0  0  0
   -0.5312    1.8773    0.9064 H   0  0  0  0  0  0  0  0  0  0  0  0
    1.3936    3.1490   -0.1360 H   0  0  0  0  0  0  0  0  0  0  0  0
    1.9022    1.8239    0.9424 H   0  0  0  0  0  0  0  0  0  0  0  0
    4.8898    1.5021   -3.2893 H   0  0  0  0  0  0  0  0  0  0  0  0
    0.7206   -1.5491   -1.3289 H   0  0  0  0  0  0  0  0  0  0  0  0
   -0.2863   -0.3087   -2.1191 H   0  0  0  0  0  0  0  0  0  0  0  0
    5.5759    3.1828   -2.4462 H   0  0  0  0  0  0  0  0  0  0  0  0
    5.3083    5.2960   -0.4695 H   0  0  0  0  0  0  0  0  0  0  0  0
    6.1507    7.7380   -2.3892 H   0  0  0  0  0  0  0  0  0  0  0  0
    5.6876    7.6046   -0.6784 H   0  0  0  0  0  0  0  0  0  0  0  0
    6.6107    9.8939   -0.8817 H   0  0  0  0  0  0  0  0  0  0  0  0
    8.9034   10.1483   -0.8332 H   0  0  0  0  0  0  0  0  0  0  0  0
    9.8932    7.7193   -0.3305 H   0  0  0  0  0  0  0  0  0  0  0  0
   10.2905    8.4103   -1.9206 H   0  0  0  0  0  0  0  0  0  0  0  0
   10.8725    5.7217   -2.5935 O   0  5  0  0  0  0  0  0  0  0  0  0
  1  2  1  0  0  0  0
  1 31  1  0  0  0  0
  1 32  1  0  0  0  0
  1 33  1  0  0  0  0
  2  3  1  0  0  0  0
  2  4  1  0  0  0  0
  2  5  1  0  0  0  0
  3 34  1  0  0  0  0
  3 35  1  0  0  0  0
  3 36  1  0  0  0  0
  4 37  1  0  0  0  0
  4 38  1  0  0  0  0
  4 39  1  0  0  0  0
  5  6  1  0  0  0  0
  5 14  1  0  0  0  0
  5  7  1  0  0  0  0
  7  8  1  0  0  0  0
  7 40  1  0  0  0  0
  7 41  1  0  0  0  0
  8  9  1  0  0  0  0
  8 42  1  0  0  0  0
  8 43  1  0  0  0  0
  9 13  2  0  0  0  0
  9 10  1  0  0  0  0
 10 11  2  0  0  0  0
 10 15  1  0  0  0  0
 11 12  1  0  0  0  0
 11 44  1  0  0  0  0
 12 13  1  0  0  0  0
 13 14  1  0  0  0  0
 14 45  1  0  0  0  0
 14 46  1  0  0  0  0
 15 16  2  0  0  0  0
 15 17  1  0  0  0  0
 17 18  1  0  0  0  0
 17 47  1  0  0  0  0
 18 19  1  0  0  0  0
 18 48  1  0  0  0  0
 19 20  2  0  0  0  0
 19 21  1  0  0  0  0
 21 22  1  0  0  0  0
 21 27  1  0  0  0  0
 21 23  1  0  0  0  0
 23 24  1  0  0  0  0
 23 49  1  0  0  0  0
 23 50  1  0  0  0  0
 24 25  2  0  0  0  0
 24 51  1  0  0  0  0
 25 26  1  0  0  0  0
 25 52  1  0  0  0  0
 26 27  1  0  0  0  0
 26 53  1  0  0  0  0
 26 54  1  0  0  0  0
 27 28  1  0  0  0  0
 27 29  1  0  0  0  0
 29 30  2  0  0  0  0
 29 55  1  0  0  0  0
M  CHG  1  55  -1
M  END
$$$$
ZINC03983520
  -OEChem-08230709463D

 47 48  0     0  0  0  0  0  0999 V2000
    2.5621   -8.6794   -0.8578 C   0  0  0  0  0  0  0  0  0  0  0  0
    2.3351   -7.8965    0.4370 C   0  0  0  0  0  0  0  0  0  0  0  0
    3.5895   -7.0861    0.7695 C   0  0  0  0  0  0  0  0  0  0  0  0
    2.0411   -8.8724    1.5781 C   0  0  0  0  0  0  0  0  0  0  0  0
    1.1657   -6.9625    0.2608 C   0  0  0  0  0  0  0  0  0  0  0  0
   -0.0831   -7.4728   -0.0467 C   0  0  0  0  0  0  0  0  0  0  0  0
   -1.1577   -6.6232   -0.2097 C   0  0  0  0  0  0  0  0  0  0  0  0
   -0.9832   -5.2461   -0.0633 C   0  0  0  0  0  0  0  0  0  0  0  0
    0.2804   -4.7375    0.2418 C   0  0  0  0  0  0  0  0  0  0  0  0
    1.3456   -5.5984    0.4069 C   0  0  0  0  0  0  0  0  0  0  0  0
   -2.1301   -4.3299   -0.2364 C   0  0  0  0  0  0  0  0  0  0  0  0
   -2.1599   -2.9510   -0.1386 C   0  0  0  0  0  0  0  0  0  0  0  0
   -3.3527   -2.2994   -0.3373 C   0  0  0  0  0  0  0  0  0  0  0  0
   -4.4816   -3.0629   -0.6402 C   0  0  0  0  0  0  0  0  0  0  0  0
   -3.8256   -4.7230   -0.6315 S   0  0  0  0  0  0  0  0  0  0  0  0
   -5.8052   -2.6319   -0.8894 C   0  0  0  0  0  0  0  0  0  0  0  0
   -6.0760   -1.4457   -0.8528 O   0  0  0  0  0  0  0  0  0  0  0  0
   -6.7683   -3.5358   -1.1680 O   0  0  0  0  0  0  0  0  0  0  0  0
   -8.0827   -3.0298   -1.4094 C   0  0  0  0  0  0  0  0  0  0  0  0
   -3.4327   -0.9112   -0.2445 N   0  0  0  0  0  0  0  0  0  0  0  0
   -2.4996   -0.2271    0.4467 C   0  0  0  0  0  0  0  0  0  0  0  0
   -1.6523   -0.8256    1.0803 O   0  0  0  0  0  0  0  0  0  0  0  0
   -2.5064    1.2488    0.4342 C   0  0  0  0  0  0  0  0  0  0  0  0
   -1.4256    1.9290    0.8503 C   0  0  0  0  0  0  0  0  0  0  0  0
   -0.0909    1.3051    0.7835 C   0  0  0  0  0  0  0  0  0  0  0  0
    0.0500    0.2294    0.2374 O   0  0  0  0  0  0  0  0  0  0  0  0
    2.7716   -7.9841   -1.6708 H   0  0  0  0  0  0  0  0  0  0  0  0
    3.4079   -9.3549   -0.7304 H   0  0  0  0  0  0  0  0  0  0  0  0
    1.6684   -9.2567   -1.0947 H   0  0  0  0  0  0  0  0  0  0  0  0
    3.4278   -6.5284    1.6920 H   0  0  0  0  0  0  0  0  0  0  0  0
    4.4354   -7.7617    0.8969 H   0  0  0  0  0  0  0  0  0  0  0  0
    3.7990   -6.3909   -0.0434 H   0  0  0  0  0  0  0  0  0  0  0  0
    1.1474   -9.4497    1.3412 H   0  0  0  0  0  0  0  0  0  0  0  0
    2.8869   -9.5479    1.7055 H   0  0  0  0  0  0  0  0  0  0  0  0
    1.8794   -8.3146    2.5005 H   0  0  0  0  0  0  0  0  0  0  0  0
   -0.2167   -8.5385   -0.1597 H   0  0  0  0  0  0  0  0  0  0  0  0
   -2.1318   -7.0227   -0.4505 H   0  0  0  0  0  0  0  0  0  0  0  0
    0.4231   -3.6726    0.3517 H   0  0  0  0  0  0  0  0  0  0  0  0
    2.3230   -5.2065    0.6467 H   0  0  0  0  0  0  0  0  0  0  0  0
   -1.2625   -2.3967    0.0936 H   0  0  0  0  0  0  0  0  0  0  0  0
   -8.4323   -2.4916   -0.5284 H   0  0  0  0  0  0  0  0  0  0  0  0
   -8.0604   -2.3530   -2.2635 H   0  0  0  0  0  0  0  0  0  0  0  0
   -8.7582   -3.8589   -1.6203 H   0  0  0  0  0  0  0  0  0  0  0  0
   -4.1600   -0.4373   -0.6774 H   0  0  0  0  0  0  0  0  0  0  0  0
   -3.3806    1.7819    0.0905 H   0  0  0  0  0  0  0  0  0  0  0  0
   -1.5339    2.9328    1.2338 H   0  0  0  0  0  0  0  0  0  0  0  0
    0.9733    1.9311    1.3235 O   0  5  0  0  0  0  0  0  0  0  0  0
  1  2  1  0  0  0  0
  1 27  1  0  0  0  0
  1 28  1  0  0  0  0
  1 29  1  0  0  0  0
  2  3  1  0  0  0  0
  2  4  1  0  0  0  0
  2  5  1  0  0  0  0
  3 30  1  0  0  0  0
  3 31  1  0  0  0  0
  3 32  1  0  0  0  0
  4 33  1  0  0  0  0
  4 34  1  0  0  0  0
  4 35  1  0  0  0  0
  5 10  2  0  0  0  0
  5  6  1  0  0  0  0
  6  7  2  0  0  0  0
  6 36  1  0  0  0  0
  7  8  1  0  0  0  0
  7 37  1  0  0  0  0
  8  9  2  0  0  0  0
  8 11  1  0  0  0  0
  9 10  1  0  0  0  0
  9 38  1  0  0  0  0
 10 39  1  0  0  0  0
 11 15  1  0  0  0  0
 11 12  2  0  0  0  0
 12 13  1  0  0  0  0
 12 40  1  0  0  0  0
 13 14  2  0  0  0  0
 13 20  1  0  0  0  0
 14 15  1  0  0  0  0
 14 16  1  0  0  0  0
 16 17  2  0  0  0  0
 16 18  1  0  0  0  0
 18 19  1  0  0  0  0
 19 41  1  0  0  0  0
 19 42  1  0  0  0  0
 19 43  1  0  0  0  0
 20 21  1  0  0  0  0
 20 44  1  0  0  0  0
 21 22  2  0  0  0  0
 21 23  1  0  0  0  0
 23 24  2  3  0  0  0
 23 45  1  0  0  0  0
 24 25  1  0  0  0  0
 24 46  1  0  0  0  0
 25 26  2  0  0  0  0
 25 47  1  0  0  0  0
M  CHG  1  47  -1
M  END
$$$$
ZINC03983521
  -OEChem-08230709463D

 47 48  0     0  0  0  0  0  0999 V2000
  -12.1467   -3.2987    1.6473 C   0  0  0  0  0  0  0  0  0  0  0  0
  -11.4782   -2.8832    0.3353 C   0  0  0  0  0  0  0  0  0  0  0  0
  -11.4578   -1.3567    0.2344 C   0  0  0  0  0  0  0  0  0  0  0  0
  -12.2641   -3.4618   -0.8431 C   0  0  0  0  0  0  0  0  0  0  0  0
  -10.0658   -3.4077    0.3031 C   0  0  0  0  0  0  0  0  0  0  0  0
   -9.8349   -4.7696    0.3814 C   0  0  0  0  0  0  0  0  0  0  0  0
   -8.5443   -5.2563    0.3529 C   0  0  0  0  0  0  0  0  0  0  0  0
   -7.4703   -4.3713    0.2449 C   0  0  0  0  0  0  0  0  0  0  0  0
   -7.7100   -2.9982    0.1716 C   0  0  0  0  0  0  0  0  0  0  0  0
   -9.0057   -2.5250    0.1958 C   0  0  0  0  0  0  0  0  0  0  0  0
   -6.0849   -4.8856    0.2143 C   0  0  0  0  0  0  0  0  0  0  0  0
   -4.9004   -4.1789    0.1186 C   0  0  0  0  0  0  0  0  0  0  0  0
   -3.7152   -4.8732    0.1039 C   0  0  0  0  0  0  0  0  0  0  0  0
   -3.7624   -6.2654    0.1979 C   0  0  0  0  0  0  0  0  0  0  0  0
   -5.5173   -6.5756    0.2996 S   0  0  0  0  0  0  0  0  0  0  0  0
   -2.6942   -7.1920    0.2093 C   0  0  0  0  0  0  0  0  0  0  0  0
   -1.5455   -6.7974    0.1297 O   0  0  0  0  0  0  0  0  0  0  0  0
   -2.9485   -8.5141    0.3084 O   0  0  0  0  0  0  0  0  0  0  0  0
   -1.8216   -9.3928    0.3138 C   0  0  0  0  0  0  0  0  0  0  0  0
   -2.4965   -4.2047    0.0033 N   0  0  0  0  0  0  0  0  0  0  0  0
   -2.4427   -2.9834   -0.5642 C   0  0  0  0  0  0  0  0  0  0  0  0
   -3.4362   -2.5078   -1.0783 O   0  0  0  0  0  0  0  0  0  0  0  0
   -1.1774   -2.2235   -0.5614 C   0  0  0  0  0  0  0  0  0  0  0  0
   -1.1237   -1.0064   -1.1270 C   0  0  0  0  0  0  0  0  0  0  0  0
    0.1406   -0.2471   -1.1242 C   0  0  0  0  0  0  0  0  0  0  0  0
    1.1333   -0.7224   -0.6105 O   0  0  0  0  0  0  0  0  0  0  0  0
  -11.5869   -2.8865    2.4868 H   0  0  0  0  0  0  0  0  0  0  0  0
  -13.1683   -2.9194    1.6706 H   0  0  0  0  0  0  0  0  0  0  0  0
  -12.1613   -4.3862    1.7192 H   0  0  0  0  0  0  0  0  0  0  0  0
  -10.9816   -1.0606   -0.7003 H   0  0  0  0  0  0  0  0  0  0  0  0
  -12.4794   -0.9773    0.2577 H   0  0  0  0  0  0  0  0  0  0  0  0
  -10.8980   -0.9445    1.0739 H   0  0  0  0  0  0  0  0  0  0  0  0
  -12.2786   -4.5493   -0.7712 H   0  0  0  0  0  0  0  0  0  0  0  0
  -13.2857   -3.0824   -0.8198 H   0  0  0  0  0  0  0  0  0  0  0  0
  -11.7878   -3.1657   -1.7778 H   0  0  0  0  0  0  0  0  0  0  0  0
  -10.6668   -5.4532    0.4653 H   0  0  0  0  0  0  0  0  0  0  0  0
   -8.3654   -6.3196    0.4145 H   0  0  0  0  0  0  0  0  0  0  0  0
   -6.8832   -2.3079    0.0920 H   0  0  0  0  0  0  0  0  0  0  0  0
   -9.1927   -1.4631    0.1351 H   0  0  0  0  0  0  0  0  0  0  0  0
   -4.9070   -3.1010    0.0528 H   0  0  0  0  0  0  0  0  0  0  0  0
   -2.1653  -10.4238    0.3979 H   0  0  0  0  0  0  0  0  0  0  0  0
   -1.2614   -9.2710   -0.6132 H   0  0  0  0  0  0  0  0  0  0  0  0
   -1.1787   -9.1539    1.1610 H   0  0  0  0  0  0  0  0  0  0  0  0
   -1.6871   -4.6184    0.3418 H   0  0  0  0  0  0  0  0  0  0  0  0
   -0.2947   -2.6461   -0.1047 H   0  0  0  0  0  0  0  0  0  0  0  0
   -2.0064   -0.5838   -1.5837 H   0  0  0  0  0  0  0  0  0  0  0  0
    0.1944    0.9740   -1.6916 O   0  5  0  0  0  0  0  0  0  0  0  0
  1  2  1  0  0  0  0
  1 27  1  0  0  0  0
  1 28  1  0  0  0  0
  1 29  1  0  0  0  0
  2  3  1  0  0  0  0
  2  4  1  0  0  0  0
  2  5  1  0  0  0  0
  3 30  1  0  0  0  0
  3 31  1  0  0  0  0
  3 32  1  0  0  0  0
  4 33  1  0  0  0  0
  4 34  1  0  0  0  0
  4 35  1  0  0  0  0
  5 10  2  0  0  0  0
  5  6  1  0  0  0  0
  6  7  2  0  0  0  0
  6 36  1  0  0  0  0
  7  8  1  0  0  0  0
  7 37  1  0  0  0  0
  8  9  2  0  0  0  0
  8 11  1  0  0  0  0
  9 10  1  0  0  0  0
  9 38  1  0  0  0  0
 10 39  1  0  0  0  0
 11 15  1  0  0  0  0
 11 12  2  0  0  0  0
 12 13  1  0  0  0  0
 12 40  1  0  0  0  0
 13 14  2  0  0  0  0
 13 20  1  0  0  0  0
 14 15  1  0  0  0  0
 14 16  1  0  0  0  0
 16 17  2  0  0  0  0
 16 18  1  0  0  0  0
 18 19  1  0  0  0  0
 19 41  1  0  0  0  0
 19 42  1  0  0  0  0
 19 43  1  0  0  0  0
 20 21  1  0  0  0  0
 20 44  1  0  0  0  0
 21 22  2  0  0  0  0
 21 23  1  0  0  0  0
 23 24  2  0  0  0  0
 23 45  1  0  0  0  0
 24 25  1  0  0  0  0
 24 46  1  0  0  0  0
 25 26  2  0  0  0  0
 25 47  1  0  0  0  0
M  CHG  1  47  -1
M  END
$$$$
ZINC03983522
  -OEChem-08230709463D

 49 50  0     0  0  0  0  0  0999 V2000
    4.2839    7.8362    1.2933 C   0  0  0  0  0  0  0  0  0  0  0  0
    4.6344    7.0488    0.0292 C   0  0  0  0  0  0  0  0  0  0  0  0
    6.1386    6.7700    0.0026 C   0  0  0  0  0  0  0  0  0  0  0  0
    4.2452    7.8655   -1.2047 C   0  0  0  0  0  0  0  0  0  0  0  0
    3.8814    5.7434    0.0255 C   0  0  0  0  0  0  0  0  0  0  0  0
    2.4980    5.7462    0.0469 C   0  0  0  0  0  0  0  0  0  0  0  0
    1.8026    4.5548    0.0446 C   0  0  0  0  0  0  0  0  0  0  0  0
    2.4978    3.3446    0.0200 C   0  0  0  0  0  0  0  0  0  0  0  0
    3.8936    3.3488    0.0034 C   0  0  0  0  0  0  0  0  0  0  0  0
    4.5766    4.5474    0.0011 C   0  0  0  0  0  0  0  0  0  0  0  0
    1.7593    2.0643    0.0179 C   0  0  0  0  0  0  0  0  0  0  0  0
    2.2597    0.7752   -0.0044 C   0  0  0  0  0  0  0  0  0  0  0  0
    1.3772   -0.2768   -0.0021 C   0  0  0  0  0  0  0  0  0  0  0  0
    0.0106    0.0053    0.0227 C   0  0  0  0  0  0  0  0  0  0  0  0
   -0.0041    1.7901    0.0428 S   0  0  0  0  0  0  0  0  0  0  0  0
   -1.0819   -0.8924    0.0307 C   0  0  0  0  0  0  0  0  0  0  0  0
   -0.8831   -2.0932    0.0145 O   0  0  0  0  0  0  0  0  0  0  0  0
   -2.3454   -0.4177    0.0563 O   0  0  0  0  0  0  0  0  0  0  0  0
   -3.4005   -1.3815    0.0629 C   0  0  0  0  0  0  0  0  0  0  0  0
    1.8353   -1.5948   -0.0236 N   0  0  0  0  0  0  0  0  0  0  0  0
    2.9550   -1.9080   -0.7051 C   0  0  0  0  0  0  0  0  0  0  0  0
    3.6084   -1.0331   -1.2330 O   0  0  0  0  0  0  0  0  0  0  0  0
    3.3954   -3.3453   -0.8111 C   0  0  0  0  0  0  0  0  0  0  0  0
    4.6850   -3.4245   -1.6306 C   0  0  0  0  0  0  0  0  0  0  0  0
    5.1253   -4.8618   -1.7367 C   0  0  0  0  0  0  0  0  0  0  0  0
    4.4744   -5.7334   -1.2107 O   0  0  0  0  0  0  0  0  0  0  0  0
    4.5612    7.2543    2.1723 H   0  0  0  0  0  0  0  0  0  0  0  0
    4.8285    8.7803    1.2960 H   0  0  0  0  0  0  0  0  0  0  0  0
    3.2123    8.0348    1.3122 H   0  0  0  0  0  0  0  0  0  0  0  0
    6.3883    6.2091   -0.8980 H   0  0  0  0  0  0  0  0  0  0  0  0
    6.6832    7.7142    0.0053 H   0  0  0  0  0  0  0  0  0  0  0  0
    6.4158    6.1882    0.8816 H   0  0  0  0  0  0  0  0  0  0  0  0
    3.1736    8.0641   -1.1858 H   0  0  0  0  0  0  0  0  0  0  0  0
    4.7898    8.8097   -1.2020 H   0  0  0  0  0  0  0  0  0  0  0  0
    4.4949    7.3046   -2.1053 H   0  0  0  0  0  0  0  0  0  0  0  0
    1.9613    6.6833    0.0659 H   0  0  0  0  0  0  0  0  0  0  0  0
    0.7227    4.5584    0.0620 H   0  0  0  0  0  0  0  0  0  0  0  0
    4.4375    2.4159   -0.0112 H   0  0  0  0  0  0  0  0  0  0  0  0
    5.6565    4.5521   -0.0159 H   0  0  0  0  0  0  0  0  0  0  0  0
    3.3251    0.5992   -0.0229 H   0  0  0  0  0  0  0  0  0  0  0  0
   -4.3616   -0.8678    0.0840 H   0  0  0  0  0  0  0  0  0  0  0  0
   -3.3367   -1.9963   -0.8349 H   0  0  0  0  0  0  0  0  0  0  0  0
   -3.3079   -2.0155    0.9447 H   0  0  0  0  0  0  0  0  0  0  0  0
    1.3477   -2.2855    0.4520 H   0  0  0  0  0  0  0  0  0  0  0  0
    3.5740   -3.7452    0.1870 H   0  0  0  0  0  0  0  0  0  0  0  0
    2.6164   -3.9287   -1.3021 H   0  0  0  0  0  0  0  0  0  0  0  0
    4.5063   -3.0247   -2.6288 H   0  0  0  0  0  0  0  0  0  0  0  0
    5.4639   -2.8412   -1.1396 H   0  0  0  0  0  0  0  0  0  0  0  0
    6.2405   -5.1738   -2.4154 O   0  5  0  0  0  0  0  0  0  0  0  0
  1  2  1  0  0  0  0
  1 27  1  0  0  0  0
  1 28  1  0  0  0  0
  1 29  1  0  0  0  0
  2  3  1  0  0  0  0
  2  4  1  0  0  0  0
  2  5  1  0  0  0  0
  3 30  1  0  0  0  0
  3 31  1  0  0  0  0
  3 32  1  0  0  0  0
  4 33  1  0  0  0  0
  4 34  1  0  0  0  0
  4 35  1  0  0  0  0
  5 10  2  0  0  0  0
  5  6  1  0  0  0  0
  6  7  2  0  0  0  0
  6 36  1  0  0  0  0
  7  8  1  0  0  0  0
  7 37  1  0  0  0  0
  8  9  2  0  0  0  0
  8 11  1  0  0  0  0
  9 10  1  0  0  0  0
  9 38  1  0  0  0  0
 10 39  1  0  0  0  0
 11 15  1  0  0  0  0
 11 12  2  0  0  0  0
 12 13  1  0  0  0  0
 12 40  1  0  0  0  0
 13 14  2  0  0  0  0
 13 20  1  0  0  0  0
 14 15  1  0  0  0  0
 14 16  1  0  0  0  0
 16 17  2  0  0  0  0
 16 18  1  0  0  0  0
 18 19  1  0  0  0  0
 19 41  1  0  0  0  0
 19 42  1  0  0  0  0
 19 43  1  0  0  0  0
 20 21  1  0  0  0  0
 20 44  1  0  0  0  0
 21 22  2  0  0  0  0
 21 23  1  0  0  0  0
 23 24  1  0  0  0  0
 23 45  1  0  0  0  0
 23 46  1  0  0  0  0
 24 25  1  0  0  0  0
 24 47  1  0  0  0  0
 24 48  1  0  0  0  0
 25 26  2  0  0  0  0
 25 49  1  0  0  0  0
M  CHG  1  49  -1
M  END
$$$$
ZINC03983623
  -OEChem-08230709463D

 60 62  0     1  0  0  0  0  0999 V2000
    4.0631    5.5538    2.1649 C   0  0  0  0  0  0  0  0  0  0  0  0
    3.1650    5.4035    0.9355 C   0  0  0  0  0  0  0  0  0  0  0  0
    3.7839    6.1571   -0.2435 C   0  0  0  0  0  0  0  0  0  0  0  0
    3.0331    3.9437    0.5851 C   0  0  0  0  0  0  0  0  0  0  0  0
    4.1568    3.2028    0.2687 C   0  0  0  0  0  0  0  0  0  0  0  0
    4.0276    1.8662   -0.0482 C   0  0  0  0  0  0  0  0  0  0  0  0
    2.7783    1.2610   -0.0521 C   0  0  0  0  0  0  0  0  0  0  0  0
    1.6581    1.9981    0.2574 C   0  0  0  0  0  0  0  0  0  0  0  0
    1.7914    3.3438    0.5788 C   0  0  0  0  0  0  0  0  0  0  0  0
    0.2699    1.4134    0.2645 C   0  0  0  0  0  0  0  0  0  0  0  0
    0.3246   -0.1138    0.2815 C   0  0  0  0  0  0  0  0  0  0  0  0
    1.2875   -0.5697   -0.8162 C   0  0  1  0  0  0  0  0  0  0  0  0
    1.0445   -0.0439   -1.7395 H   0  0  0  0  0  0  0  0  0  0  0  0
    2.7094   -0.2068   -0.4007 C   0  0  2  0  0  0  0  0  0  0  0  0
    3.1190   -1.0201    0.8306 C   0  0  0  0  0  0  0  0  0  0  0  0
    3.0105   -2.5144    0.5270 C   0  0  0  0  0  0  0  0  0  0  0  0
    1.5586   -2.8511    0.1766 C   0  0  0  0  0  0  0  0  0  0  0  0
    1.1509   -2.0657   -1.0661 C   0  0  2  0  0  0  0  0  0  0  0  0
    2.0557   -2.4699   -2.2318 C   0  0  0  0  0  0  0  0  0  0  0  0
   -0.3020   -2.3903   -1.4194 C   0  0  0  0  0  0  0  0  0  0  0  0
   -0.4362   -3.8291   -1.6603 N   0  0  0  0  0  0  0  0  0  0  0  0
   -1.6357   -4.3483   -1.9891 C   0  0  0  0  0  0  0  0  0  0  0  0
   -2.6060   -3.6229   -2.0858 O   0  0  0  0  0  0  0  0  0  0  0  0
   -1.7710   -5.7987   -2.2320 C   0  0  0  0  0  0  0  0  0  0  0  0
   -2.9659   -6.3159   -2.5596 C   0  0  0  0  0  0  0  0  0  0  0  0
   -3.1010   -7.7648   -2.8022 C   0  0  0  0  0  0  0  0  0  0  0  0
   -2.1314   -8.4898   -2.7057 O   0  0  0  0  0  0  0  0  0  0  0  0
    3.6706   -0.5045   -1.5532 C   0  0  0  0  0  0  0  0  0  0  0  0
    5.0486    5.1419    1.9475 H   0  0  0  0  0  0  0  0  0  0  0  0
    4.1585    6.6096    2.4183 H   0  0  0  0  0  0  0  0  0  0  0  0
    3.6222    5.0169    3.0048 H   0  0  0  0  0  0  0  0  0  0  0  0
    2.1795    5.8154    1.1529 H   0  0  0  0  0  0  0  0  0  0  0  0
    3.1440    6.0500   -1.1194 H   0  0  0  0  0  0  0  0  0  0  0  0
    3.8792    7.2129    0.0099 H   0  0  0  0  0  0  0  0  0  0  0  0
    4.7694    5.7452   -0.4609 H   0  0  0  0  0  0  0  0  0  0  0  0
    5.1313    3.6683    0.2694 H   0  0  0  0  0  0  0  0  0  0  0  0
    4.9049    1.2865   -0.2948 H   0  0  0  0  0  0  0  0  0  0  0  0
    0.9149    3.9246    0.8254 H   0  0  0  0  0  0  0  0  0  0  0  0
   -0.2629    1.7434   -0.6273 H   0  0  0  0  0  0  0  0  0  0  0  0
   -0.2620    1.7632    1.1493 H   0  0  0  0  0  0  0  0  0  0  0  0
    0.6831   -0.4582    1.2515 H   0  0  0  0  0  0  0  0  0  0  0  0
   -0.6692   -0.5194    0.0916 H   0  0  0  0  0  0  0  0  0  0  0  0
    4.1478   -0.7787    1.0980 H   0  0  0  0  0  0  0  0  0  0  0  0
    2.4619   -0.7712    1.6639 H   0  0  0  0  0  0  0  0  0  0  0  0
    3.6557   -2.7628   -0.3156 H   0  0  0  0  0  0  0  0  0  0  0  0
    3.3162   -3.0872    1.4025 H   0  0  0  0  0  0  0  0  0  0  0  0
    1.4693   -3.9195   -0.0203 H   0  0  0  0  0  0  0  0  0  0  0  0
    0.9098   -2.5781    1.0088 H   0  0  0  0  0  0  0  0  0  0  0  0
    3.0574   -2.6815   -1.8578 H   0  0  0  0  0  0  0  0  0  0  0  0
    1.6519   -3.3605   -2.7133 H   0  0  0  0  0  0  0  0  0  0  0  0
    2.1024   -1.6555   -2.9548 H   0  0  0  0  0  0  0  0  0  0  0  0
   -0.9507   -2.0981   -0.5936 H   0  0  0  0  0  0  0  0  0  0  0  0
   -0.5884   -1.8432   -2.3176 H   0  0  0  0  0  0  0  0  0  0  0  0
    0.3382   -4.4081   -1.5832 H   0  0  0  0  0  0  0  0  0  0  0  0
   -0.9088   -6.4434   -2.1462 H   0  0  0  0  0  0  0  0  0  0  0  0
   -3.8281   -5.6713   -2.6455 H   0  0  0  0  0  0  0  0  0  0  0  0
    3.1759   -0.2964   -2.5019 H   0  0  0  0  0  0  0  0  0  0  0  0
    4.5560    0.1244   -1.4595 H   0  0  0  0  0  0  0  0  0  0  0  0
    3.9648   -1.5535   -1.5192 H   0  0  0  0  0  0  0  0  0  0  0  0
   -4.3003   -8.2839   -3.1310 O   0  5  0  0  0  0  0  0  0  0  0  0
  1  2  1  0  0  0  0
  1 29  1  0  0  0  0
  1 30  1  0  0  0  0
  1 31  1  0  0  0  0
  2  3  1  0  0  0  0
  2  4  1  0  0  0  0
  2 32  1  0  0  0  0
  3 33  1  0  0  0  0
  3 34  1  0  0  0  0
  3 35  1  0  0  0  0
  4  9  2  0  0  0  0
  4  5  1  0  0  0  0
  5  6  2  0  0  0  0
  5 36  1  0  0  0  0
  6  7  1  0  0  0  0
  6 37  1  0  0  0  0
  7 14  1  0  0  0  0
  7  8  2  0  0  0  0
  8  9  1  0  0  0  0
  8 10  1  0  0  0  0
  9 38  1  0  0  0  0
 10 11  1  0  0  0  0
 10 39  1  0  0  0  0
 10 40  1  0  0  0  0
 11 12  1  0  0  0  0
 11 41  1  0  0  0  0
 11 42  1  0  0  0  0
 12 13  1  0  0  0  0
 12 18  1  0  0  0  0
 12 14  1  0  0  0  0
 14 15  1  0  0  0  0
 14 28  1  0  0  0  0
 15 16  1  0  0  0  0
 15 43  1  0  0  0  0
 15 44  1  0  0  0  0
 16 17  1  0  0  0  0
 16 45  1  0  0  0  0
 16 46  1  0  0  0  0
 17 18  1  0  0  0  0
 17 47  1  0  0  0  0
 17 48  1  0  0  0  0
 18 19  1  0  0  0  0
 18 20  1  0  0  0  0
 19 49  1  0  0  0  0
 19 50  1  0  0  0  0
 19 51  1  0  0  0  0
 20 21  1  0  0  0  0
 20 52  1  0  0  0  0
 20 53  1  0  0  0  0
 21 22  1  0  0  0  0
 21 54  1  0  0  0  0
 22 23  2  0  0  0  0
 22 24  1  0  0  0  0
 24 25  2  0  0  0  0
 24 55  1  0  0  0  0
 25 26  1  0  0  0  0
 25 56  1  0  0  0  0
 26 27  2  0  0  0  0
 26 60  1  0  0  0  0
 28 57  1  0  0  0  0
 28 58  1  0  0  0  0
 28 59  1  0  0  0  0
M  CHG  1  60  -1
M  END
$$$$
ZINC03983639
  -OEChem-08230709463D

 56 58  0     1  0  0  0  0  0999 V2000
    8.3914   12.6001   -0.2796 C   0  0  0  0  0  0  0  0  0  0  0  0
    9.0905   12.0499    0.9652 C   0  0  0  0  0  0  0  0  0  0  0  0
    8.6896   12.8818    2.1850 C   0  0  0  0  0  0  0  0  0  0  0  0
   10.6067   12.1240    0.7733 C   0  0  0  0  0  0  0  0  0  0  0  0
    8.6808   10.6154    1.1787 C   0  0  0  0  0  0  0  0  0  0  0  0
    9.1275    9.5161    0.4377 C   0  0  0  0  0  0  0  0  0  0  0  0
    8.5358    8.4071    0.9396 C   0  0  0  0  0  0  0  0  0  0  0  0
    7.7343    8.7934    1.9575 N   0  0  0  0  0  0  0  0  0  0  0  0
    7.8459   10.1836    2.0896 N   0  0  0  0  0  0  0  0  0  0  0  0
    6.9367    7.9507    2.7457 C   0  0  0  0  0  0  0  0  0  0  0  0
    5.7602    7.4250    2.2285 C   0  0  0  0  0  0  0  0  0  0  0  0
    4.9752    6.5957    3.0040 C   0  0  0  0  0  0  0  0  0  0  0  0
    5.3623    6.2871    4.3016 C   0  0  0  0  0  0  0  0  0  0  0  0
    6.5363    6.8175    4.8207 C   0  0  0  0  0  0  0  0  0  0  0  0
    7.3241    7.6418    4.0428 C   0  0  0  0  0  0  0  0  0  0  0  0
    4.5663    5.4459    5.0883 N   0  0  0  0  0  0  0  0  0  0  0  0
    4.9455    4.9515    6.4171 C   0  0  0  0  0  0  0  0  0  0  0  0
    4.0071    3.7565    6.6955 C   0  0  2  0  0  0  0  0  0  0  0  0
    4.4662    2.8188    6.3824 H   0  0  0  0  0  0  0  0  0  0  0  0
    2.7878    4.0998    5.8087 C   0  0  0  0  0  0  0  0  0  0  0  0
    3.3564    4.9876    4.7238 C   0  0  0  0  0  0  0  0  0  0  0  0
    2.8015    5.2476    3.6770 O   0  0  0  0  0  0  0  0  0  0  0  0
    3.6180    3.7038    8.1505 C   0  0  0  0  0  0  0  0  0  0  0  0
    4.0392    4.5356    8.9190 O   0  0  0  0  0  0  0  0  0  0  0  0
    8.7321    6.9957    0.4492 C   0  0  0  0  0  0  0  0  0  0  0  0
   10.2201    6.7465    0.1950 C   0  0  0  0  0  0  0  0  0  0  0  0
    8.2237    6.0133    1.5062 C   0  0  0  0  0  0  0  0  0  0  0  0
    7.9519    6.7945   -0.8514 C   0  0  0  0  0  0  0  0  0  0  0  0
    7.3113   12.5473   -0.1429 H   0  0  0  0  0  0  0  0  0  0  0  0
    8.6878   13.6376   -0.4340 H   0  0  0  0  0  0  0  0  0  0  0  0
    8.6771   12.0074   -1.1486 H   0  0  0  0  0  0  0  0  0  0  0  0
    9.1876   12.4898    3.0718 H   0  0  0  0  0  0  0  0  0  0  0  0
    8.9860   13.9193    2.0306 H   0  0  0  0  0  0  0  0  0  0  0  0
    7.6095   12.8290    2.3217 H   0  0  0  0  0  0  0  0  0  0  0  0
   10.8923   11.5313   -0.0957 H   0  0  0  0  0  0  0  0  0  0  0  0
   10.9030   13.1615    0.6189 H   0  0  0  0  0  0  0  0  0  0  0  0
   11.1047   11.7320    1.6601 H   0  0  0  0  0  0  0  0  0  0  0  0
    9.8250    9.5464   -0.3863 H   0  0  0  0  0  0  0  0  0  0  0  0
    5.4594    7.6648    1.2193 H   0  0  0  0  0  0  0  0  0  0  0  0
    4.0603    6.1866    2.6016 H   0  0  0  0  0  0  0  0  0  0  0  0
    6.8352    6.5812    5.8312 H   0  0  0  0  0  0  0  0  0  0  0  0
    8.2396    8.0502    4.4447 H   0  0  0  0  0  0  0  0  0  0  0  0
    4.7973    5.7299    7.1656 H   0  0  0  0  0  0  0  0  0  0  0  0
    5.9847    4.6225    6.4148 H   0  0  0  0  0  0  0  0  0  0  0  0
    2.3631    3.1937    5.3766 H   0  0  0  0  0  0  0  0  0  0  0  0
    2.0354    4.6371    6.3861 H   0  0  0  0  0  0  0  0  0  0  0  0
   10.7760    6.8898    1.1216 H   0  0  0  0  0  0  0  0  0  0  0  0
   10.3621    5.7256   -0.1596 H   0  0  0  0  0  0  0  0  0  0  0  0
   10.5824    7.4464   -0.5580 H   0  0  0  0  0  0  0  0  0  0  0  0
    7.1340    5.9936    1.4897 H   0  0  0  0  0  0  0  0  0  0  0  0
    8.6084    5.0164    1.2906 H   0  0  0  0  0  0  0  0  0  0  0  0
    8.5665    6.3298    2.4913 H   0  0  0  0  0  0  0  0  0  0  0  0
    8.3721    7.4318   -1.6295 H   0  0  0  0  0  0  0  0  0  0  0  0
    8.0215    5.7512   -1.1592 H   0  0  0  0  0  0  0  0  0  0  0  0
    6.9061    7.0573   -0.6921 H   0  0  0  0  0  0  0  0  0  0  0  0
    2.8035    2.7328    8.5927 O   0  5  0  0  0  0  0  0  0  0  0  0
  1  2  1  0  0  0  0
  1 29  1  0  0  0  0
  1 30  1  0  0  0  0
  1 31  1  0  0  0  0
  2  3  1  0  0  0  0
  2  4  1  0  0  0  0
  2  5  1  0  0  0  0
  3 32  1  0  0  0  0
  3 33  1  0  0  0  0
  3 34  1  0  0  0  0
  4 35  1  0  0  0  0
  4 36  1  0  0  0  0
  4 37  1  0  0  0  0
  5  9  2  0  0  0  0
  5  6  1  0  0  0  0
  6  7  2  0  0  0  0
  6 38  1  0  0  0  0
  7  8  1  0  0  0  0
  7 25  1  0  0  0  0
  8  9  1  0  0  0  0
  8 10  1  0  0  0  0
 10 15  2  0  0  0  0
 10 11  1  0  0  0  0
 11 12  2  0  0  0  0
 11 39  1  0  0  0  0
 12 13  1  0  0  0  0
 12 40  1  0  0  0  0
 13 14  2  0  0  0  0
 13 16  1  0  0  0  0
 14 15  1  0  0  0  0
 14 41  1  0  0  0  0
 15 42  1  0  0  0  0
 16 21  1  0  0  0  0
 16 17  1  0  0  0  0
 17 18  1  0  0  0  0
 17 43  1  0  0  0  0
 17 44  1  0  0  0  0
 18 19  1  0  0  0  0
 18 20  1  0  0  0  0
 18 23  1  0  0  0  0
 20 21  1  0  0  0  0
 20 45  1  0  0  0  0
 20 46  1  0  0  0  0
 21 22  2  0  0  0  0
 23 24  2  0  0  0  0
 23 56  1  0  0  0  0
 25 26  1  0  0  0  0
 25 27  1  0  0  0  0
 25 28  1  0  0  0  0
 26 47  1  0  0  0  0
 26 48  1  0  0  0  0
 26 49  1  0  0  0  0
 27 50  1  0  0  0  0
 27 51  1  0  0  0  0
 27 52  1  0  0  0  0
 28 53  1  0  0  0  0
 28 54  1  0  0  0  0
 28 55  1  0  0  0  0
M  CHG  1  56  -1
M  END
$$$$
ZINC03987121
  -OEChem-08230709463D

 53 55  0     1  0  0  0  0  0999 V2000
  -11.0102   -4.1914    4.9913 C   0  0  0  0  0  0  0  0  0  0  0  0
   -9.7747   -4.2721    4.1321 C   0  0  0  0  0  0  0  0  0  0  0  0
   -9.8146   -4.9578    2.9311 C   0  0  0  0  0  0  0  0  0  0  0  0
   -8.6871   -5.0354    2.1398 C   0  0  0  0  0  0  0  0  0  0  0  0
   -7.5045   -4.4204    2.5534 C   0  0  0  0  0  0  0  0  0  0  0  0
   -7.4696   -3.7348    3.7686 C   0  0  0  0  0  0  0  0  0  0  0  0
   -8.6057   -3.6598    4.5476 C   0  0  0  0  0  0  0  0  0  0  0  0
   -6.2924   -4.5000    1.7108 C   0  0  0  0  0  0  0  0  0  0  0  0
   -5.1260   -3.9700    1.9944 N   0  0  0  0  0  0  0  0  0  0  0  0
   -4.2745   -4.2476    0.9956 C   0  0  0  0  0  0  0  0  0  0  0  0
   -4.9375   -4.9764    0.0793 C   0  0  0  0  0  0  0  0  0  0  0  0
   -6.1985   -5.1328    0.5286 O   0  0  0  0  0  0  0  0  0  0  0  0
   -4.3744   -5.5180   -1.2094 C   0  0  0  0  0  0  0  0  0  0  0  0
   -2.8304   -3.8239    0.9169 C   0  0  0  0  0  0  0  0  0  0  0  0
   -2.7403   -2.5593    0.2576 O   0  0  0  0  0  0  0  0  0  0  0  0
   -1.4059   -2.0641    0.1301 C   0  0  1  0  0  0  0  0  0  0  0  0
   -0.8035   -2.4239    0.9643 H   0  0  0  0  0  0  0  0  0  0  0  0
   -0.8019   -2.5587   -1.1857 C   0  0  0  0  0  0  0  0  0  0  0  0
    0.6268   -2.0285   -1.3222 C   0  0  0  0  0  0  0  0  0  0  0  0
    0.6061   -0.4987   -1.3138 C   0  0  0  0  0  0  0  0  0  0  0  0
    0.0021   -0.0041    0.0020 C   0  0  2  0  0  0  0  0  0  0  0  0
    0.6044   -0.3639    0.8362 H   0  0  0  0  0  0  0  0  0  0  0  0
   -1.4266   -0.5342    0.1385 C   0  0  0  0  0  0  0  0  0  0  0  0
   -0.0187    1.5258    0.0104 C   0  0  0  0  0  0  0  0  0  0  0  0
    1.6831    2.1537   -0.0024 S   0  0  0  0  0  0  0  0  0  0  0  0
    1.4857    3.9568    0.0091 C   0  0  0  0  0  0  0  0  0  0  0  0
    2.8434    4.6109   -0.0003 C   0  0  0  0  0  0  0  0  0  0  0  0
    3.8417    3.9304   -0.0135 O   0  0  0  0  0  0  0  0  0  0  0  0
  -11.0284   -5.0347    5.6816 H   0  0  0  0  0  0  0  0  0  0  0  0
  -10.9996   -3.2594    5.5564 H   0  0  0  0  0  0  0  0  0  0  0  0
  -11.8963   -4.2218    4.3572 H   0  0  0  0  0  0  0  0  0  0  0  0
  -10.7305   -5.4330    2.6121 H   0  0  0  0  0  0  0  0  0  0  0  0
   -8.7197   -5.5707    1.2024 H   0  0  0  0  0  0  0  0  0  0  0  0
   -6.5563   -3.2605    4.0963 H   0  0  0  0  0  0  0  0  0  0  0  0
   -8.5812   -3.1262    5.4863 H   0  0  0  0  0  0  0  0  0  0  0  0
   -3.9598   -6.5110   -1.0358 H   0  0  0  0  0  0  0  0  0  0  0  0
   -5.1675   -5.5805   -1.9545 H   0  0  0  0  0  0  0  0  0  0  0  0
   -3.5887   -4.8541   -1.5699 H   0  0  0  0  0  0  0  0  0  0  0  0
   -2.2637   -4.5672    0.3561 H   0  0  0  0  0  0  0  0  0  0  0  0
   -2.4213   -3.7388    1.9237 H   0  0  0  0  0  0  0  0  0  0  0  0
   -1.4042   -2.1989   -2.0199 H   0  0  0  0  0  0  0  0  0  0  0  0
   -0.7871   -3.6486   -1.1917 H   0  0  0  0  0  0  0  0  0  0  0  0
    1.0571   -2.3809   -2.2597 H   0  0  0  0  0  0  0  0  0  0  0  0
    1.2291   -2.3883   -0.4881 H   0  0  0  0  0  0  0  0  0  0  0  0
    0.0037   -0.1389   -2.1480 H   0  0  0  0  0  0  0  0  0  0  0  0
    1.6239   -0.1210   -1.4111 H   0  0  0  0  0  0  0  0  0  0  0  0
   -1.8569   -0.1819    1.0760 H   0  0  0  0  0  0  0  0  0  0  0  0
   -2.0289   -0.1745   -0.6956 H   0  0  0  0  0  0  0  0  0  0  0  0
   -0.5459    1.8868   -0.8726 H   0  0  0  0  0  0  0  0  0  0  0  0
   -0.5289    1.8773    0.9072 H   0  0  0  0  0  0  0  0  0  0  0  0
    0.9269    4.2668   -0.8739 H   0  0  0  0  0  0  0  0  0  0  0  0
    0.9439    4.2573    0.9059 H   0  0  0  0  0  0  0  0  0  0  0  0
    2.9435    5.9494    0.0059 O   0  5  0  0  0  0  0  0  0  0  0  0
  1  2  1  0  0  0  0
  1 29  1  0  0  0  0
  1 30  1  0  0  0  0
  1 31  1  0  0  0  0
  2  7  2  0  0  0  0
  2  3  1  0  0  0  0
  3  4  2  0  0  0  0
  3 32  1  0  0  0  0
  4  5  1  0  0  0  0
  4 33  1  0  0  0  0
  5  6  2  0  0  0  0
  5  8  1  0  0  0  0
  6  7  1  0  0  0  0
  6 34  1  0  0  0  0
  7 35  1  0  0  0  0
  8 12  1  0  0  0  0
  8  9  2  0  0  0  0
  9 10  1  0  0  0  0
 10 11  2  0  0  0  0
 10 14  1  0  0  0  0
 11 12  1  0  0  0  0
 11 13  1  0  0  0  0
 13 36  1  0  0  0  0
 13 37  1  0  0  0  0
 13 38  1  0  0  0  0
 14 15  1  0  0  0  0
 14 39  1  0  0  0  0
 14 40  1  0  0  0  0
 15 16  1  0  0  0  0
 16 17  1  0  0  0  0
 16 23  1  0  0  0  0
 16 18  1  0  0  0  0
 18 19  1  0  0  0  0
 18 41  1  0  0  0  0
 18 42  1  0  0  0  0
 19 20  1  0  0  0  0
 19 43  1  0  0  0  0
 19 44  1  0  0  0  0
 20 21  1  0  0  0  0
 20 45  1  0  0  0  0
 20 46  1  0  0  0  0
 21 22  1  0  0  0  0
 21 23  1  0  0  0  0
 21 24  1  0  0  0  0
 23 47  1  0  0  0  0
 23 48  1  0  0  0  0
 24 25  1  0  0  0  0
 24 49  1  0  0  0  0
 24 50  1  0  0  0  0
 25 26  1  0  0  0  0
 26 27  1  0  0  0  0
 26 51  1  0  0  0  0
 26 52  1  0  0  0  0
 27 28  2  0  0  0  0
 27 53  1  0  0  0  0
M  CHG  1  53  -1
M  END
$$$$
ZINC03988148
  -OEChem-08230709463D

 59 62  0     1  0  0  0  0  0999 V2000
   -2.5885    1.7112   -2.5710 C   0  0  0  0  0  0  0  0  0  0  0  0
   -1.7840    1.1272   -1.4079 C   0  0  0  0  0  0  0  0  0  0  0  0
   -0.4457    1.8601   -1.2948 C   0  0  0  0  0  0  0  0  0  0  0  0
    0.4167    1.1850   -0.2265 C   0  0  2  0  0  0  0  0  0  0  0  0
    0.5100    0.1228   -0.4526 H   0  0  0  0  0  0  0  0  0  0  0  0
   -0.2403    1.3588    1.1443 C   0  0  0  0  0  0  0  0  0  0  0  0
    0.5384    0.5847    2.1764 C   0  0  0  0  0  0  0  0  0  0  0  0
    1.4607   -0.1177    1.8359 O   0  0  0  0  0  0  0  0  0  0  0  0
    1.7464    1.7998   -0.2121 N   0  0  0  0  0  0  0  0  0  0  0  0
    1.9986    3.1220    0.0323 C   0  0  0  0  0  0  0  0  0  0  0  0
    3.3194    3.3546   -0.0259 C   0  0  0  0  0  0  0  0  0  0  0  0
    3.9661    2.0787   -0.3422 C   0  0  0  0  0  0  0  0  0  0  0  0
    2.9303    1.1332   -0.4488 C   0  0  0  0  0  0  0  0  0  0  0  0
    3.2381   -0.1899   -0.7462 C   0  0  0  0  0  0  0  0  0  0  0  0
    4.5496   -0.5662   -0.9337 C   0  0  0  0  0  0  0  0  0  0  0  0
    5.5771    0.3674   -0.8293 C   0  0  0  0  0  0  0  0  0  0  0  0
    5.2922    1.6860   -0.5347 C   0  0  0  0  0  0  0  0  0  0  0  0
    6.8667   -0.0210   -1.0178 O   0  0  0  0  0  0  0  0  0  0  0  0
    7.0916   -1.3995   -1.3196 C   0  0  0  0  0  0  0  0  0  0  0  0
    8.5914   -1.6448   -1.4966 C   0  0  0  0  0  0  0  0  0  0  0  0
    8.8285   -3.0986   -1.8148 C   0  0  0  0  0  0  0  0  0  0  0  0
    9.5276   -3.4420   -2.9549 C   0  0  0  0  0  0  0  0  0  0  0  0
    9.7451   -4.7827   -3.2385 C   0  0  0  0  0  0  0  0  0  0  0  0
    9.2404   -5.7361   -2.3688 C   0  0  0  0  0  0  0  0  0  0  0  0
    8.5439   -5.3201   -1.2427 C   0  0  0  0  0  0  0  0  0  0  0  0
    8.0285   -6.2511   -0.3430 N   0  0  0  0  0  0  0  0  0  0  0  0
    7.9576   -7.6630   -0.7414 C   0  0  0  0  0  0  0  0  0  0  0  0
    9.2908   -8.0329   -1.4046 C   0  0  0  0  0  0  0  0  0  0  0  0
    9.4598   -7.1935   -2.6715 C   0  0  0  0  0  0  0  0  0  0  0  0
   -2.7688    2.7711   -2.3920 H   0  0  0  0  0  0  0  0  0  0  0  0
   -2.0280    1.5893   -3.4978 H   0  0  0  0  0  0  0  0  0  0  0  0
   -3.5419    1.1890   -2.6516 H   0  0  0  0  0  0  0  0  0  0  0  0
   -1.6037    0.0672   -1.5869 H   0  0  0  0  0  0  0  0  0  0  0  0
   -2.3445    1.2490   -0.4811 H   0  0  0  0  0  0  0  0  0  0  0  0
   -0.6228    2.8988   -1.0158 H   0  0  0  0  0  0  0  0  0  0  0  0
    0.0703    1.8245   -2.2542 H   0  0  0  0  0  0  0  0  0  0  0  0
   -0.2481    2.4154    1.4121 H   0  0  0  0  0  0  0  0  0  0  0  0
   -1.2639    0.9861    1.1064 H   0  0  0  0  0  0  0  0  0  0  0  0
    1.2466    3.8677    0.2437 H   0  0  0  0  0  0  0  0  0  0  0  0
    3.8118    4.3035    0.1273 H   0  0  0  0  0  0  0  0  0  0  0  0
    2.4489   -0.9224   -0.8295 H   0  0  0  0  0  0  0  0  0  0  0  0
    4.7832   -1.5953   -1.1638 H   0  0  0  0  0  0  0  0  0  0  0  0
    6.0901    2.4093   -0.4540 H   0  0  0  0  0  0  0  0  0  0  0  0
    6.7164   -2.0162   -0.5029 H   0  0  0  0  0  0  0  0  0  0  0  0
    6.5697   -1.6596   -2.2406 H   0  0  0  0  0  0  0  0  0  0  0  0
    8.9665   -1.0281   -2.3133 H   0  0  0  0  0  0  0  0  0  0  0  0
    9.1132   -1.3847   -0.5756 H   0  0  0  0  0  0  0  0  0  0  0  0
    9.9042   -2.6757   -3.6162 H   0  0  0  0  0  0  0  0  0  0  0  0
   10.2929   -5.0773   -4.1215 H   0  0  0  0  0  0  0  0  0  0  0  0
    7.7209   -5.9709    0.5332 H   0  0  0  0  0  0  0  0  0  0  0  0
    7.7976   -8.2869    0.1380 H   0  0  0  0  0  0  0  0  0  0  0  0
    7.1407   -7.8062   -1.4486 H   0  0  0  0  0  0  0  0  0  0  0  0
   10.1109   -7.8259   -0.7171 H   0  0  0  0  0  0  0  0  0  0  0  0
    9.2891   -9.0918   -1.6630 H   0  0  0  0  0  0  0  0  0  0  0  0
   10.4671   -7.3324   -3.0642 H   0  0  0  0  0  0  0  0  0  0  0  0
    8.7342   -7.5171   -3.4177 H   0  0  0  0  0  0  0  0  0  0  0  0
    0.2074    0.6754    3.4741 O   0  5  0  0  0  0  0  0  0  0  0  0
    8.3208   -4.0050   -0.9386 N   0  3  0  0  0  0  0  0  0  0  0  0
    7.8016   -3.7203   -0.0998 H   0  0  0  0  0  0  0  0  0  0  0  0
  1  2  1  0  0  0  0
  1 30  1  0  0  0  0
  1 31  1  0  0  0  0
  1 32  1  0  0  0  0
  2  3  1  0  0  0  0
  2 33  1  0  0  0  0
  2 34  1  0  0  0  0
  3  4  1  0  0  0  0
  3 35  1  0  0  0  0
  3 36  1  0  0  0  0
  4  5  1  0  0  0  0
  4  6  1  0  0  0  0
  4  9  1  0  0  0  0
  6  7  1  0  0  0  0
  6 37  1  0  0  0  0
  6 38  1  0  0  0  0
  7  8  2  0  0  0  0
  7 57  1  0  0  0  0
  9 13  1  0  0  0  0
  9 10  1  0  0  0  0
 10 11  2  0  0  0  0
 10 39  1  0  0  0  0
 11 12  1  0  0  0  0
 11 40  1  0  0  0  0
 12 17  2  0  0  0  0
 12 13  1  0  0  0  0
 13 14  2  0  0  0  0
 14 15  1  0  0  0  0
 14 41  1  0  0  0  0
 15 16  2  0  0  0  0
 15 42  1  0  0  0  0
 16 17  1  0  0  0  0
 16 18  1  0  0  0  0
 17 43  1  0  0  0  0
 18 19  1  0  0  0  0
 19 20  1  0  0  0  0
 19 44  1  0  0  0  0
 19 45  1  0  0  0  0
 20 21  1  0  0  0  0
 20 46  1  0  0  0  0
 20 47  1  0  0  0  0
 21 22  2  0  0  0  0
 21 58  1  0  0  0  0
 22 23  1  0  0  0  0
 22 48  1  0  0  0  0
 23 24  2  0  0  0  0
 23 49  1  0  0  0  0
 24 29  1  0  0  0  0
 24 25  1  0  0  0  0
 25 26  1  0  0  0  0
 25 58  2  0  0  0  0
 26 27  1  0  0  0  0
 26 50  1  0  0  0  0
 27 28  1  0  0  0  0
 27 51  1  0  0  0  0
 27 52  1  0  0  0  0
 28 29  1  0  0  0  0
 28 53  1  0  0  0  0
 28 54  1  0  0  0  0
 29 55  1  0  0  0  0
 29 56  1  0  0  0  0
 58 59  1  0  0  0  0
M  CHG  2  57  -1  58   1
M  END
$$$$
ZINC03988149
  -OEChem-08230709463D

 50 53  0     0  0  0  0  0  0999 V2000
   -1.6908    2.2499    3.7019 C   0  0  0  0  0  0  0  0  0  0  0  0
   -2.2234    2.6113    4.9195 C   0  0  0  0  0  0  0  0  0  0  0  0
   -1.6130    2.1934    6.0969 C   0  0  0  0  0  0  0  0  0  0  0  0
   -0.4551    1.3974    6.0327 C   0  0  0  0  0  0  0  0  0  0  0  0
   -0.0675    1.1330    7.4205 C   0  0  0  0  0  0  0  0  0  0  0  0
   -0.9653    1.7512    8.2040 C   0  0  0  0  0  0  0  0  0  0  0  0
   -1.8966    2.3902    7.4321 N   0  0  0  0  0  0  0  0  0  0  0  0
   -3.0266    3.1676    7.9470 C   0  0  0  0  0  0  0  0  0  0  0  0
   -4.2705    2.2791    8.0096 C   0  0  0  0  0  0  0  0  0  0  0  0
   -5.4329    3.0788    8.5393 C   0  0  0  0  0  0  0  0  0  0  0  0
   -5.2818    4.2402    8.8362 O   0  0  0  0  0  0  0  0  0  0  0  0
    0.0731    1.0326    4.7927 C   0  0  0  0  0  0  0  0  0  0  0  0
   -0.5478    1.4577    3.6350 C   0  0  0  0  0  0  0  0  0  0  0  0
   -0.0377    1.1059    2.4245 O   0  0  0  0  0  0  0  0  0  0  0  0
   -0.7288    1.5792    1.2668 C   0  0  0  0  0  0  0  0  0  0  0  0
   -0.0127    1.0858    0.0080 C   0  0  0  0  0  0  0  0  0  0  0  0
   -0.7416    1.5850   -1.2129 C   0  0  0  0  0  0  0  0  0  0  0  0
   -0.0564    2.3102   -2.1673 C   0  0  0  0  0  0  0  0  0  0  0  0
   -0.7340    2.7627   -3.2905 C   0  0  0  0  0  0  0  0  0  0  0  0
   -2.0851    2.4793   -3.4102 C   0  0  0  0  0  0  0  0  0  0  0  0
   -2.7118    1.7480   -2.4109 C   0  0  0  0  0  0  0  0  0  0  0  0
   -4.0675    1.4387   -2.5019 N   0  0  0  0  0  0  0  0  0  0  0  0
   -4.8932    2.1406   -3.4934 C   0  0  0  0  0  0  0  0  0  0  0  0
   -4.1178    2.1688   -4.8170 C   0  0  0  0  0  0  0  0  0  0  0  0
   -2.8335    2.9743   -4.6180 C   0  0  0  0  0  0  0  0  0  0  0  0
   -2.1665    2.5806    2.7905 H   0  0  0  0  0  0  0  0  0  0  0  0
   -3.1128    3.2227    4.9598 H   0  0  0  0  0  0  0  0  0  0  0  0
    0.7803    0.5511    7.7507 H   0  0  0  0  0  0  0  0  0  0  0  0
   -0.9537    1.7455    9.2839 H   0  0  0  0  0  0  0  0  0  0  0  0
   -2.7906    3.5334    8.9463 H   0  0  0  0  0  0  0  0  0  0  0  0
   -3.2170    4.0133    7.2861 H   0  0  0  0  0  0  0  0  0  0  0  0
   -4.5065    1.9133    7.0103 H   0  0  0  0  0  0  0  0  0  0  0  0
   -4.0801    1.4335    8.6705 H   0  0  0  0  0  0  0  0  0  0  0  0
    0.9622    0.4218    4.7395 H   0  0  0  0  0  0  0  0  0  0  0  0
   -0.7436    2.6691    1.2728 H   0  0  0  0  0  0  0  0  0  0  0  0
   -1.7514    1.2020    1.2746 H   0  0  0  0  0  0  0  0  0  0  0  0
    0.0021   -0.0041    0.0020 H   0  0  0  0  0  0  0  0  0  0  0  0
    1.0099    1.4631    0.0003 H   0  0  0  0  0  0  0  0  0  0  0  0
    0.9959    2.5194   -2.0431 H   0  0  0  0  0  0  0  0  0  0  0  0
   -0.2198    3.3280   -4.0537 H   0  0  0  0  0  0  0  0  0  0  0  0
   -4.4601    0.7702   -1.9190 H   0  0  0  0  0  0  0  0  0  0  0  0
   -5.8361    1.6109   -3.6295 H   0  0  0  0  0  0  0  0  0  0  0  0
   -5.0875    3.1590   -3.1570 H   0  0  0  0  0  0  0  0  0  0  0  0
   -3.8680    1.1508   -5.1160 H   0  0  0  0  0  0  0  0  0  0  0  0
   -4.7291    2.6366   -5.5887 H   0  0  0  0  0  0  0  0  0  0  0  0
   -2.2024    2.8705   -5.5006 H   0  0  0  0  0  0  0  0  0  0  0  0
   -3.0854    4.0253   -4.4767 H   0  0  0  0  0  0  0  0  0  0  0  0
   -6.6360    2.5008    8.6812 O   0  5  0  0  0  0  0  0  0  0  0  0
   -2.0648    1.2866   -1.2973 N   0  3  0  0  0  0  0  0  0  0  0  0
   -2.5492    0.7478   -0.5697 H   0  0  0  0  0  0  0  0  0  0  0  0
  1 13  2  0  0  0  0
  1  2  1  0  0  0  0
  1 26  1  0  0  0  0
  2  3  2  0  0  0  0
  2 27  1  0  0  0  0
  3  7  1  0  0  0  0
  3  4  1  0  0  0  0
  4  5  1  0  0  0  0
  4 12  2  0  0  0  0
  5  6  2  0  0  0  0
  5 28  1  0  0  0  0
  6  7  1  0  0  0  0
  6 29  1  0  0  0  0
  7  8  1  0  0  0  0
  8  9  1  0  0  0  0
  8 30  1  0  0  0  0
  8 31  1  0  0  0  0
  9 10  1  0  0  0  0
  9 32  1  0  0  0  0
  9 33  1  0  0  0  0
 10 11  2  0  0  0  0
 10 48  1  0  0  0  0
 12 13  1  0  0  0  0
 12 34  1  0  0  0  0
 13 14  1  0  0  0  0
 14 15  1  0  0  0  0
 15 16  1  0  0  0  0
 15 35  1  0  0  0  0
 15 36  1  0  0  0  0
 16 17  1  0  0  0  0
 16 37  1  0  0  0  0
 16 38  1  0  0  0  0
 17 18  2  0  0  0  0
 17 49  1  0  0  0  0
 18 19  1  0  0  0  0
 18 39  1  0  0  0  0
 19 20  2  0  0  0  0
 19 40  1  0  0  0  0
 20 25  1  0  0  0  0
 20 21  1  0  0  0  0
 21 22  1  0  0  0  0
 21 49  2  0  0  0  0
 22 23  1  0  0  0  0
 22 41  1  0  0  0  0
 23 24  1  0  0  0  0
 23 42  1  0  0  0  0
 23 43  1  0  0  0  0
 24 25  1  0  0  0  0
 24 44  1  0  0  0  0
 24 45  1  0  0  0  0
 25 46  1  0  0  0  0
 25 47  1  0  0  0  0
 49 50  1  0  0  0  0
M  CHG  2  48  -1  49   1
M  END
$$$$
ZINC03988905
  -OEChem-08230709463D

 52 55  0     1  0  0  0  0  0999 V2000
   -2.8719    2.8853    1.3426 C   0  0  0  0  0  0  0  0  0  0  0  0
   -2.1678    1.7803    0.6783 N   0  0  2  0  0  0  0  0  0  0  0  0
   -0.7995    1.6157    1.2287 C   0  0  0  0  0  0  0  0  0  0  0  0
   -0.0127    1.0858    0.0080 C   0  0  0  0  0  0  0  0  0  0  0  0
   -0.8068    1.6181   -1.1683 C   0  0  0  0  0  0  0  0  0  0  0  0
   -2.0513    2.0148   -0.7009 C   0  0  0  0  0  0  0  0  0  0  0  0
   -2.9759    2.5545   -1.6020 C   0  0  0  0  0  0  0  0  0  0  0  0
   -2.6461    2.6838   -2.9409 C   0  0  0  0  0  0  0  0  0  0  0  0
   -1.4035    2.2793   -3.3927 C   0  0  0  0  0  0  0  0  0  0  0  0
   -0.4862    1.7470   -2.5053 C   0  0  0  0  0  0  0  0  0  0  0  0
   -1.0489    2.4190   -4.8507 C   0  0  1  0  0  0  0  0  0  0  0  0
   -0.0400    2.0431   -5.0208 H   0  0  0  0  0  0  0  0  0  0  0  0
   -2.0472    1.6257   -5.7033 C   0  0  0  0  0  0  0  0  0  0  0  0
   -1.8493    1.9788   -7.1797 C   0  0  0  0  0  0  0  0  0  0  0  0
   -2.3277    3.4131   -7.4332 C   0  0  0  0  0  0  0  0  0  0  0  0
   -1.6941    4.3169   -6.4022 C   0  0  0  0  0  0  0  0  0  0  0  0
   -1.1254    3.8689   -5.2551 C   0  0  0  0  0  0  0  0  0  0  0  0
   -0.6480    4.9815   -4.5604 C   0  0  0  0  0  0  0  0  0  0  0  0
   -0.9557    6.0849   -5.3336 C   0  0  0  0  0  0  0  0  0  0  0  0
   -1.5906    5.6485   -6.4437 O   0  0  0  0  0  0  0  0  0  0  0  0
   -0.6581    7.4323   -5.0190 C   0  0  0  0  0  0  0  0  0  0  0  0
   -1.0191    8.4243   -5.8726 C   0  0  0  0  0  0  0  0  0  0  0  0
   -0.7219    9.7694   -5.5585 C   0  0  0  0  0  0  0  0  0  0  0  0
   -0.1423   10.0387   -4.5227 O   0  0  0  0  0  0  0  0  0  0  0  0
   -4.2355    2.9656   -1.1493 N   0  0  0  0  0  0  0  0  0  0  0  0
   -4.4457    4.3967   -1.4055 C   0  0  0  0  0  0  0  0  0  0  0  0
   -5.3024    2.1596   -1.7577 C   0  0  0  0  0  0  0  0  0  0  0  0
   -3.8715    2.9857    0.9195 H   0  0  0  0  0  0  0  0  0  0  0  0
   -2.9483    2.6780    2.4099 H   0  0  0  0  0  0  0  0  0  0  0  0
   -2.3185    3.8121    1.1911 H   0  0  0  0  0  0  0  0  0  0  0  0
   -0.7909    0.8878    2.0400 H   0  0  0  0  0  0  0  0  0  0  0  0
   -0.3978    2.5726    1.5620 H   0  0  0  0  0  0  0  0  0  0  0  0
    0.0021   -0.0041    0.0020 H   0  0  0  0  0  0  0  0  0  0  0  0
    1.0019    1.4841    0.0005 H   0  0  0  0  0  0  0  0  0  0  0  0
   -3.3614    3.1013   -3.6339 H   0  0  0  0  0  0  0  0  0  0  0  0
    0.4842    1.4314   -2.8589 H   0  0  0  0  0  0  0  0  0  0  0  0
   -1.8804    0.5582   -5.5593 H   0  0  0  0  0  0  0  0  0  0  0  0
   -3.0638    1.8788   -5.4024 H   0  0  0  0  0  0  0  0  0  0  0  0
   -2.4244    1.2896   -7.7981 H   0  0  0  0  0  0  0  0  0  0  0  0
   -0.7923    1.8984   -7.4333 H   0  0  0  0  0  0  0  0  0  0  0  0
   -3.4131    3.4591   -7.3441 H   0  0  0  0  0  0  0  0  0  0  0  0
   -2.0279    3.7294   -8.4323 H   0  0  0  0  0  0  0  0  0  0  0  0
   -0.1389    4.9802   -3.6079 H   0  0  0  0  0  0  0  0  0  0  0  0
   -0.1437    7.6713   -4.0999 H   0  0  0  0  0  0  0  0  0  0  0  0
   -1.5334    8.1853   -6.7917 H   0  0  0  0  0  0  0  0  0  0  0  0
   -4.3799    4.5876   -2.4766 H   0  0  0  0  0  0  0  0  0  0  0  0
   -5.4315    4.6895   -1.0441 H   0  0  0  0  0  0  0  0  0  0  0  0
   -3.6817    4.9749   -0.8857 H   0  0  0  0  0  0  0  0  0  0  0  0
   -5.1612    1.1115   -1.4940 H   0  0  0  0  0  0  0  0  0  0  0  0
   -6.2700    2.4999   -1.3889 H   0  0  0  0  0  0  0  0  0  0  0  0
   -5.2676    2.2695   -2.8416 H   0  0  0  0  0  0  0  0  0  0  0  0
   -1.0809   10.7559   -6.4073 O   0  5  0  0  0  0  0  0  0  0  0  0
  1  2  1  0  0  0  0
  1 28  1  0  0  0  0
  1 29  1  0  0  0  0
  1 30  1  0  0  0  0
  2  6  1  0  0  0  0
  2  3  1  0  0  0  0
  3  4  1  0  0  0  0
  3 31  1  0  0  0  0
  3 32  1  0  0  0  0
  4  5  1  0  0  0  0
  4 33  1  0  0  0  0
  4 34  1  0  0  0  0
  5 10  2  0  0  0  0
  5  6  1  0  0  0  0
  6  7  2  0  0  0  0
  7  8  1  0  0  0  0
  7 25  1  0  0  0  0
  8  9  2  0  0  0  0
  8 35  1  0  0  0  0
  9 10  1  0  0  0  0
  9 11  1  0  0  0  0
 10 36  1  0  0  0  0
 11 12  1  0  0  0  0
 11 17  1  0  0  0  0
 11 13  1  0  0  0  0
 13 14  1  0  0  0  0
 13 37  1  0  0  0  0
 13 38  1  0  0  0  0
 14 15  1  0  0  0  0
 14 39  1  0  0  0  0
 14 40  1  0  0  0  0
 15 16  1  0  0  0  0
 15 41  1  0  0  0  0
 15 42  1  0  0  0  0
 16 20  1  0  0  0  0
 16 17  2  0  0  0  0
 17 18  1  0  0  0  0
 18 19  2  0  0  0  0
 18 43  1  0  0  0  0
 19 20  1  0  0  0  0
 19 21  1  0  0  0  0
 21 22  2  0  0  0  0
 21 44  1  0  0  0  0
 22 23  1  0  0  0  0
 22 45  1  0  0  0  0
 23 24  2  0  0  0  0
 23 52  1  0  0  0  0
 25 26  1  0  0  0  0
 25 27  1  0  0  0  0
 26 46  1  0  0  0  0
 26 47  1  0  0  0  0
 26 48  1  0  0  0  0
 27 49  1  0  0  0  0
 27 50  1  0  0  0  0
 27 51  1  0  0  0  0
M  CHG  1  52  -1
M  END
$$$$
ZINC03989388
  -OEChem-08230709463D

 57 61  0     1  0  0  0  0  0999 V2000
    2.4635    3.1131    5.5630 C   0  0  0  0  0  0  0  0  0  0  0  0
    1.7044    2.7190    4.4182 O   0  0  0  0  0  0  0  0  0  0  0  0
    0.4330    2.2895    4.6384 C   0  0  0  0  0  0  0  0  0  0  0  0
   -0.0744    2.2537    5.9273 C   0  0  0  0  0  0  0  0  0  0  0  0
   -1.3651    1.8113    6.1500 C   0  0  0  0  0  0  0  0  0  0  0  0
   -2.1542    1.4094    5.0884 C   0  0  0  0  0  0  0  0  0  0  0  0
   -1.6561    1.4480    3.7994 C   0  0  0  0  0  0  0  0  0  0  0  0
   -0.3632    1.8903    3.5692 C   0  0  0  0  0  0  0  0  0  0  0  0
    0.1283    1.9290    2.3018 O   0  0  0  0  0  0  0  0  0  0  0  0
   -0.6951    1.3824    1.2697 C   0  0  0  0  0  0  0  0  0  0  0  0
    0.1579    0.9514    0.0577 C   0  0  0  0  0  0  0  0  0  0  0  0
   -0.6945    1.2522   -1.1564 C   0  0  0  0  0  0  0  0  0  0  0  0
   -0.5900    0.7990   -2.4610 C   0  0  0  0  0  0  0  0  0  0  0  0
   -1.4968    1.2148   -3.4160 C   0  0  0  0  0  0  0  0  0  0  0  0
   -2.5124    2.0866   -3.0697 C   0  0  0  0  0  0  0  0  0  0  0  0
   -2.6183    2.5396   -1.7694 C   0  0  0  0  0  0  0  0  0  0  0  0
   -1.7097    2.1238   -0.8103 C   0  0  0  0  0  0  0  0  0  0  0  0
   -1.6090    2.4687    0.6601 C   0  0  0  0  0  0  0  0  0  0  0  0
   -3.5606    0.9286    5.3368 C   0  0  0  0  0  0  0  0  0  0  0  0
   -4.5919    1.9107    4.7285 C   0  0  0  0  0  0  0  0  0  0  0  0
   -5.8797    1.6600    5.5388 C   0  0  2  0  0  0  0  0  0  0  0  0
   -6.5669    0.9955    5.0152 H   0  0  0  0  0  0  0  0  0  0  0  0
   -6.5416    3.0159    5.8571 C   0  0  0  0  0  0  0  0  0  0  0  0
   -7.0027    2.8796    7.3291 C   0  0  0  0  0  0  0  0  0  0  0  0
   -5.8467    2.0779    7.9763 C   0  0  0  0  0  0  0  0  0  0  0  0
   -5.4358    1.0608    6.8925 C   0  0  2  0  0  0  0  0  0  0  0  0
   -5.8847    0.0842    7.0733 H   0  0  0  0  0  0  0  0  0  0  0  0
   -3.8969    0.9727    6.8478 C   0  0  0  0  0  0  0  0  0  0  0  0
   -7.1419    4.2333    7.9767 C   0  0  0  0  0  0  0  0  0  0  0  0
   -6.3990    4.5527    8.8745 O   0  0  0  0  0  0  0  0  0  0  0  0
   -3.7481   -0.4292    4.8001 C   0  0  0  0  0  0  0  0  0  0  0  0
   -3.8927   -1.4771    4.3859 N   0  0  0  0  0  0  0  0  0  0  0  0
    3.4566    3.4332    5.2478 H   0  0  0  0  0  0  0  0  0  0  0  0
    1.9591    3.9373    6.0673 H   0  0  0  0  0  0  0  0  0  0  0  0
    2.5538    2.2693    6.2470 H   0  0  0  0  0  0  0  0  0  0  0  0
    0.5400    2.5671    6.7584 H   0  0  0  0  0  0  0  0  0  0  0  0
   -1.7577    1.7794    7.1556 H   0  0  0  0  0  0  0  0  0  0  0  0
   -2.2744    1.1331    2.9719 H   0  0  0  0  0  0  0  0  0  0  0  0
   -1.2851    0.5463    1.6452 H   0  0  0  0  0  0  0  0  0  0  0  0
    0.3784   -0.1147    0.1104 H   0  0  0  0  0  0  0  0  0  0  0  0
    1.0829    1.5270    0.0225 H   0  0  0  0  0  0  0  0  0  0  0  0
    0.2033    0.1182   -2.7324 H   0  0  0  0  0  0  0  0  0  0  0  0
   -1.4126    0.8595   -4.4324 H   0  0  0  0  0  0  0  0  0  0  0  0
   -3.2225    2.4127   -3.8152 H   0  0  0  0  0  0  0  0  0  0  0  0
   -3.4119    3.2206   -1.4996 H   0  0  0  0  0  0  0  0  0  0  0  0
   -1.1601    3.4538    0.7877 H   0  0  0  0  0  0  0  0  0  0  0  0
   -2.5951    2.4402    1.1237 H   0  0  0  0  0  0  0  0  0  0  0  0
   -4.2573    2.9405    4.8535 H   0  0  0  0  0  0  0  0  0  0  0  0
   -4.7553    1.6872    3.6742 H   0  0  0  0  0  0  0  0  0  0  0  0
   -7.3975    3.1850    5.2036 H   0  0  0  0  0  0  0  0  0  0  0  0
   -5.8206    3.8271    5.7570 H   0  0  0  0  0  0  0  0  0  0  0  0
   -7.9392    2.3254    7.3909 H   0  0  0  0  0  0  0  0  0  0  0  0
   -6.1949    1.5617    8.8710 H   0  0  0  0  0  0  0  0  0  0  0  0
   -5.0126    2.7375    8.2159 H   0  0  0  0  0  0  0  0  0  0  0  0
   -3.5526    0.0641    7.3416 H   0  0  0  0  0  0  0  0  0  0  0  0
   -3.4492    1.8512    7.3124 H   0  0  0  0  0  0  0  0  0  0  0  0
   -8.0912    5.0840    7.5563 O   0  5  0  0  0  0  0  0  0  0  0  0
  1  2  1  0  0  0  0
  1 33  1  0  0  0  0
  1 34  1  0  0  0  0
  1 35  1  0  0  0  0
  2  3  1  0  0  0  0
  3  8  2  0  0  0  0
  3  4  1  0  0  0  0
  4  5  2  0  0  0  0
  4 36  1  0  0  0  0
  5  6  1  0  0  0  0
  5 37  1  0  0  0  0
  6  7  2  0  0  0  0
  6 19  1  0  0  0  0
  7  8  1  0  0  0  0
  7 38  1  0  0  0  0
  8  9  1  0  0  0  0
  9 10  1  0  0  0  0
 10 18  1  0  0  0  0
 10 11  1  0  0  0  0
 10 39  1  0  0  0  0
 11 12  1  0  0  0  0
 11 40  1  0  0  0  0
 11 41  1  0  0  0  0
 12 17  2  0  0  0  0
 12 13  1  0  0  0  0
 13 14  2  0  0  0  0
 13 42  1  0  0  0  0
 14 15  1  0  0  0  0
 14 43  1  0  0  0  0
 15 16  2  0  0  0  0
 15 44  1  0  0  0  0
 16 17  1  0  0  0  0
 16 45  1  0  0  0  0
 17 18  1  0  0  0  0
 18 46  1  0  0  0  0
 18 47  1  0  0  0  0
 19 28  1  0  0  0  0
 19 20  1  0  0  0  0
 19 31  1  0  0  0  0
 20 21  1  0  0  0  0
 20 48  1  0  0  0  0
 20 49  1  0  0  0  0
 21 22  1  0  0  0  0
 21 26  1  0  0  0  0
 21 23  1  0  0  0  0
 23 24  1  0  0  0  0
 23 50  1  0  0  0  0
 23 51  1  0  0  0  0
 24 25  1  0  0  0  0
 24 29  1  0  0  0  0
 24 52  1  0  0  0  0
 25 26  1  0  0  0  0
 25 53  1  0  0  0  0
 25 54  1  0  0  0  0
 26 27  1  0  0  0  0
 26 28  1  0  0  0  0
 28 55  1  0  0  0  0
 28 56  1  0  0  0  0
 29 30  2  0  0  0  0
 29 57  1  0  0  0  0
 31 32  3  0  0  0  0
M  CHG  1  57  -1
M  END
$$$$
ZINC03989888
  -OEChem-08230709463D

 54 56  0     1  0  0  0  0  0999 V2000
   -2.2819    0.5769    7.0802 C   0  0  0  0  0  0  0  0  0  0  0  0
   -2.1861    1.3472    5.8804 O   0  0  0  0  0  0  0  0  0  0  0  0
   -2.7687    2.5743    5.8872 C   0  0  0  0  0  0  0  0  0  0  0  0
   -3.4136    3.0310    7.0256 C   0  0  0  0  0  0  0  0  0  0  0  0
   -4.0129    4.2768    7.0323 C   0  0  0  0  0  0  0  0  0  0  0  0
   -3.9686    5.0797    5.9077 C   0  0  0  0  0  0  0  0  0  0  0  0
   -3.3220    4.6407    4.7634 C   0  0  0  0  0  0  0  0  0  0  0  0
   -2.7140    3.3823    4.7482 C   0  0  0  0  0  0  0  0  0  0  0  0
   -2.0199    2.9046    3.5282 C   0  0  0  0  0  0  0  0  0  0  0  0
   -0.6428    2.6900    3.5455 C   0  0  0  0  0  0  0  0  0  0  0  0
   -0.0021    2.2449    2.4070 C   0  0  0  0  0  0  0  0  0  0  0  0
   -0.7240    2.0118    1.2503 C   0  0  0  0  0  0  0  0  0  0  0  0
   -2.0900    2.2284    1.2257 C   0  0  0  0  0  0  0  0  0  0  0  0
   -2.7422    2.6680    2.3597 C   0  0  0  0  0  0  0  0  0  0  0  0
   -0.0187    1.5258    0.0104 C   0  0  0  0  0  0  0  0  0  0  0  0
    0.0021   -0.0041    0.0020 C   0  0  1  0  0  0  0  0  0  0  0  0
   -1.0158   -0.3818    0.0993 H   0  0  0  0  0  0  0  0  0  0  0  0
    0.5970   -0.4913   -1.2941 C   0  0  0  0  0  0  0  0  0  0  0  0
    1.5948   -1.1725   -1.2824 O   0  0  0  0  0  0  0  0  0  0  0  0
    0.8116   -0.4876    1.1232 N   0  0  0  0  0  0  0  0  0  0  0  0
    0.5876   -1.7358    1.6417 C   0  0  0  0  0  0  0  0  0  0  0  0
   -0.7129   -3.7806    1.5518 C   0  0  0  0  0  0  0  0  0  0  0  0
    0.3969   -4.3999    2.4031 C   0  0  0  0  0  0  0  0  0  0  0  0
    0.8026   -3.3875    3.4825 C   0  0  0  0  0  0  0  0  0  0  0  0
    1.4451   -2.1825    2.7899 C   0  0  0  0  0  0  0  0  0  0  0  0
   -3.2787    5.4314    3.6597 O   0  0  0  0  0  0  0  0  0  0  0  0
   -3.9217    6.7045    3.7481 C   0  0  0  0  0  0  0  0  0  0  0  0
   -1.8109    1.1202    7.8994 H   0  0  0  0  0  0  0  0  0  0  0  0
   -3.3315    0.4015    7.3165 H   0  0  0  0  0  0  0  0  0  0  0  0
   -1.7766   -0.3786    6.9398 H   0  0  0  0  0  0  0  0  0  0  0  0
   -3.4524    2.4100    7.9084 H   0  0  0  0  0  0  0  0  0  0  0  0
   -4.5181    4.6250    7.9211 H   0  0  0  0  0  0  0  0  0  0  0  0
   -4.4389    6.0518    5.9212 H   0  0  0  0  0  0  0  0  0  0  0  0
   -0.0781    2.8720    4.4479 H   0  0  0  0  0  0  0  0  0  0  0  0
    1.0648    2.0779    2.4194 H   0  0  0  0  0  0  0  0  0  0  0  0
   -2.6479    2.0490    0.3185 H   0  0  0  0  0  0  0  0  0  0  0  0
   -3.8094    2.8326    2.3406 H   0  0  0  0  0  0  0  0  0  0  0  0
    1.0039    1.9031    0.0027 H   0  0  0  0  0  0  0  0  0  0  0  0
   -0.5459    1.8868   -0.8726 H   0  0  0  0  0  0  0  0  0  0  0  0
    1.5063    0.0759    1.4984 H   0  0  0  0  0  0  0  0  0  0  0  0
   -0.8875   -4.4072    0.6772 H   0  0  0  0  0  0  0  0  0  0  0  0
   -1.6281   -3.7224    2.1410 H   0  0  0  0  0  0  0  0  0  0  0  0
    1.2569   -4.6299    1.7740 H   0  0  0  0  0  0  0  0  0  0  0  0
    0.0325   -5.3127    2.8745 H   0  0  0  0  0  0  0  0  0  0  0  0
    1.5190   -3.8447    4.1650 H   0  0  0  0  0  0  0  0  0  0  0  0
   -0.0795   -3.0662    4.0365 H   0  0  0  0  0  0  0  0  0  0  0  0
    2.4310   -2.4617    2.4183 H   0  0  0  0  0  0  0  0  0  0  0  0
    1.5470   -1.3659    3.5047 H   0  0  0  0  0  0  0  0  0  0  0  0
   -3.8129    7.2330    2.8011 H   0  0  0  0  0  0  0  0  0  0  0  0
   -4.9804    6.5626    3.9654 H   0  0  0  0  0  0  0  0  0  0  0  0
   -3.4623    7.2890    4.5453 H   0  0  0  0  0  0  0  0  0  0  0  0
    0.0183   -0.1684   -2.4614 O   0  5  0  0  0  0  0  0  0  0  0  0
   -0.3907   -2.3959    1.0408 N   0  3  0  0  0  0  0  0  0  0  0  0
   -0.9103   -1.9824    0.2577 H   0  0  0  0  0  0  0  0  0  0  0  0
  1  2  1  0  0  0  0
  1 28  1  0  0  0  0
  1 29  1  0  0  0  0
  1 30  1  0  0  0  0
  2  3  1  0  0  0  0
  3  8  2  0  0  0  0
  3  4  1  0  0  0  0
  4  5  2  0  0  0  0
  4 31  1  0  0  0  0
  5  6  1  0  0  0  0
  5 32  1  0  0  0  0
  6  7  2  0  0  0  0
  6 33  1  0  0  0  0
  7  8  1  0  0  0  0
  7 26  1  0  0  0  0
  8  9  1  0  0  0  0
  9 14  2  0  0  0  0
  9 10  1  0  0  0  0
 10 11  2  0  0  0  0
 10 34  1  0  0  0  0
 11 12  1  0  0  0  0
 11 35  1  0  0  0  0
 12 13  2  0  0  0  0
 12 15  1  0  0  0  0
 13 14  1  0  0  0  0
 13 36  1  0  0  0  0
 14 37  1  0  0  0  0
 15 16  1  0  0  0  0
 15 38  1  0  0  0  0
 15 39  1  0  0  0  0
 16 17  1  0  0  0  0
 16 18  1  0  0  0  0
 16 20  1  0  0  0  0
 18 19  2  0  0  0  0
 18 52  1  0  0  0  0
 20 21  1  0  0  0  0
 20 40  1  0  0  0  0
 21 25  1  0  0  0  0
 21 53  2  0  0  0  0
 22 23  1  0  0  0  0
 22 41  1  0  0  0  0
 22 42  1  0  0  0  0
 22 53  1  0  0  0  0
 23 24  1  0  0  0  0
 23 43  1  0  0  0  0
 23 44  1  0  0  0  0
 24 25  1  0  0  0  0
 24 45  1  0  0  0  0
 24 46  1  0  0  0  0
 25 47  1  0  0  0  0
 25 48  1  0  0  0  0
 26 27  1  0  0  0  0
 27 49  1  0  0  0  0
 27 50  1  0  0  0  0
 27 51  1  0  0  0  0
 53 54  1  0  0  0  0
M  CHG  2  52  -1  53   1
M  END
$$$$
ZINC03990465
  -OEChem-08230709463D

 53 57  0     0  0  0  0  0  0999 V2000
   -3.6603   -1.0928    0.0153 C   0  0  0  0  0  0  0  0  0  0  0  0
   -2.4866   -0.3940    0.0126 C   0  0  0  0  0  0  0  0  0  0  0  0
   -2.5041    1.0019    0.0198 C   0  0  0  0  0  0  0  0  0  0  0  0
   -3.7206    1.6868    0.0351 C   0  0  0  0  0  0  0  0  0  0  0  0
   -4.8967    0.9922    0.0325 C   0  0  0  0  0  0  0  0  0  0  0  0
   -4.8816   -0.4079    0.0253 C   0  0  0  0  0  0  0  0  0  0  0  0
   -6.1457   -1.1576    0.0277 C   0  0  0  0  0  0  0  0  0  0  0  0
   -7.3233   -0.4959    0.0373 C   0  0  0  0  0  0  0  0  0  0  0  0
   -8.5801   -1.2413    0.0397 C   0  0  0  0  0  0  0  0  0  0  0  0
   -8.5660   -2.4576    0.0330 O   0  0  0  0  0  0  0  0  0  0  0  0
   -1.2297    1.7577    0.0174 C   0  0  0  0  0  0  0  0  0  0  0  0
   -0.0126    1.0758    0.0080 C   0  0  0  0  0  0  0  0  0  0  0  0
    1.1711    1.7819    0.0004 C   0  0  0  0  0  0  0  0  0  0  0  0
    1.1532    3.1708    0.0071 C   0  0  0  0  0  0  0  0  0  0  0  0
   -0.0564    3.8525    0.0219 C   0  0  0  0  0  0  0  0  0  0  0  0
   -1.2441    3.1523    0.0294 C   0  0  0  0  0  0  0  0  0  0  0  0
   -0.0711    5.3594    0.0291 C   0  0  0  0  0  0  0  0  0  0  0  0
   -1.5184    5.8553    0.0452 C   0  0  0  0  0  0  0  0  0  0  0  0
   -1.5333    7.3852    0.0525 C   0  0  0  0  0  0  0  0  0  0  0  0
   -0.8051    7.8964    1.2973 C   0  0  0  0  0  0  0  0  0  0  0  0
    0.6422    7.4005    1.2812 C   0  0  0  0  0  0  0  0  0  0  0  0
    0.6571    5.8706    1.2738 C   0  0  0  0  0  0  0  0  0  0  0  0
    1.3465    7.9233    0.0276 C   0  0  0  0  0  0  0  0  0  0  0  0
    0.6184    7.4122   -1.2172 C   0  0  0  0  0  0  0  0  0  0  0  0
   -0.8289    7.9081   -1.2011 C   0  0  0  0  0  0  0  0  0  0  0  0
    0.6333    5.8823   -1.2245 C   0  0  0  0  0  0  0  0  0  0  0  0
    2.3216    3.8637   -0.0003 O   0  0  0  0  0  0  0  0  0  0  0  0
   -3.6463   -2.1727    0.0094 H   0  0  0  0  0  0  0  0  0  0  0  0
   -1.5444   -0.9218    0.0053 H   0  0  0  0  0  0  0  0  0  0  0  0
   -3.7317    2.7667    0.0448 H   0  0  0  0  0  0  0  0  0  0  0  0
   -5.8375    1.5224    0.0398 H   0  0  0  0  0  0  0  0  0  0  0  0
   -6.1332   -2.2375    0.0218 H   0  0  0  0  0  0  0  0  0  0  0  0
   -7.3358    0.5840    0.0432 H   0  0  0  0  0  0  0  0  0  0  0  0
    0.0021   -0.0041    0.0020 H   0  0  0  0  0  0  0  0  0  0  0  0
    2.1136    1.2547   -0.0110 H   0  0  0  0  0  0  0  0  0  0  0  0
   -2.1846    3.6831    0.0405 H   0  0  0  0  0  0  0  0  0  0  0  0
   -2.0371    5.4911   -0.8416 H   0  0  0  0  0  0  0  0  0  0  0  0
   -2.0202    5.4828    0.9383 H   0  0  0  0  0  0  0  0  0  0  0  0
   -2.5644    7.7385    0.0640 H   0  0  0  0  0  0  0  0  0  0  0  0
   -1.3069    7.5239    2.1903 H   0  0  0  0  0  0  0  0  0  0  0  0
   -0.8157    8.9863    1.3025 H   0  0  0  0  0  0  0  0  0  0  0  0
    1.1609    7.7646    2.1680 H   0  0  0  0  0  0  0  0  0  0  0  0
    0.1553    5.4981    2.1669 H   0  0  0  0  0  0  0  0  0  0  0  0
    1.6882    5.5173    1.2624 H   0  0  0  0  0  0  0  0  0  0  0  0
    1.3359    9.0133    0.0328 H   0  0  0  0  0  0  0  0  0  0  0  0
    2.3776    7.5701    0.0161 H   0  0  0  0  0  0  0  0  0  0  0  0
    1.1202    7.7847   -2.1102 H   0  0  0  0  0  0  0  0  0  0  0  0
   -1.3477    7.5439   -2.0879 H   0  0  0  0  0  0  0  0  0  0  0  0
   -0.8395    8.9980   -1.1958 H   0  0  0  0  0  0  0  0  0  0  0  0
    1.6643    5.5290   -1.2360 H   0  0  0  0  0  0  0  0  0  0  0  0
    0.1145    5.5181   -2.1113 H   0  0  0  0  0  0  0  0  0  0  0  0
    2.6518    4.0684   -0.8858 H   0  0  0  0  0  0  0  0  0  0  0  0
   -9.7564   -0.5803    0.0493 O   0  5  0  0  0  0  0  0  0  0  0  0
  1  6  2  0  0  0  0
  1  2  1  0  0  0  0
  1 28  1  0  0  0  0
  2  3  2  0  0  0  0
  2 29  1  0  0  0  0
  3  4  1  0  0  0  0
  3 11  1  0  0  0  0
  4  5  2  0  0  0  0
  4 30  1  0  0  0  0
  5  6  1  0  0  0  0
  5 31  1  0  0  0  0
  6  7  1  0  0  0  0
  7  8  2  0  0  0  0
  7 32  1  0  0  0  0
  8  9  1  0  0  0  0
  8 33  1  0  0  0  0
  9 10  2  0  0  0  0
  9 53  1  0  0  0  0
 11 16  2  0  0  0  0
 11 12  1  0  0  0  0
 12 13  2  0  0  0  0
 12 34  1  0  0  0  0
 13 14  1  0  0  0  0
 13 35  1  0  0  0  0
 14 15  2  0  0  0  0
 14 27  1  0  0  0  0
 15 16  1  0  0  0  0
 15 17  1  0  0  0  0
 16 36  1  0  0  0  0
 17 22  1  0  0  0  0
 17 26  1  0  0  0  0
 17 18  1  0  0  0  0
 18 19  1  0  0  0  0
 18 37  1  0  0  0  0
 18 38  1  0  0  0  0
 19 25  1  0  0  0  0
 19 20  1  0  0  0  0
 19 39  1  0  0  0  0
 20 21  1  0  0  0  0
 20 40  1  0  0  0  0
 20 41  1  0  0  0  0
 21 22  1  0  0  0  0
 21 23  1  0  0  0  0
 21 42  1  0  0  0  0
 22 43  1  0  0  0  0
 22 44  1  0  0  0  0
 23 24  1  0  0  0  0
 23 45  1  0  0  0  0
 23 46  1  0  0  0  0
 24 25  1  0  0  0  0
 24 26  1  0  0  0  0
 24 47  1  0  0  0  0
 25 48  1  0  0  0  0
 25 49  1  0  0  0  0
 26 50  1  0  0  0  0
 26 51  1  0  0  0  0
 27 52  1  0  0  0  0
M  CHG  1  53  -1
M  END
$$$$
ZINC03991014
  -OEChem-08230709463D

 55 57  0     0  0  0  0  0  0999 V2000
   -4.1951    7.8896    2.1968 C   0  0  0  0  0  0  0  0  0  0  0  0
   -3.1765    7.9869    3.3031 C   0  0  0  0  0  0  0  0  0  0  0  0
   -1.8548    7.8334    3.1446 C   0  0  0  0  0  0  0  0  0  0  0  0
   -1.2594    8.0166    4.4737 C   0  0  0  0  0  0  0  0  0  0  0  0
    0.0427    7.9882    4.9709 C   0  0  0  0  0  0  0  0  0  0  0  0
    0.2648    8.2061    6.3024 C   0  0  0  0  0  0  0  0  0  0  0  0
   -0.7970    8.4552    7.1600 C   0  0  0  0  0  0  0  0  0  0  0  0
   -2.0912    8.4869    6.6866 C   0  0  0  0  0  0  0  0  0  0  0  0
   -2.3388    8.2680    5.3371 C   0  0  0  0  0  0  0  0  0  0  0  0
   -3.4624    8.2367    4.5929 O   0  0  0  0  0  0  0  0  0  0  0  0
   -1.1257    7.5385    1.8592 C   0  0  0  0  0  0  0  0  0  0  0  0
   -1.0084    6.0469    1.6791 C   0  0  0  0  0  0  0  0  0  0  0  0
   -1.9978    5.3529    1.0074 C   0  0  0  0  0  0  0  0  0  0  0  0
   -1.8926    3.9855    0.8410 C   0  0  0  0  0  0  0  0  0  0  0  0
   -0.7930    3.3087    1.3485 C   0  0  0  0  0  0  0  0  0  0  0  0
    0.1956    4.0066    2.0270 C   0  0  0  0  0  0  0  0  0  0  0  0
    0.0883    5.3746    2.1861 C   0  0  0  0  0  0  0  0  0  0  0  0
    1.3883    3.2736    2.5849 C   0  0  0  0  0  0  0  0  0  0  0  0
    2.6675    3.8252    1.9523 C   0  0  0  0  0  0  0  0  0  0  0  0
    1.4437    3.4696    4.1013 C   0  0  0  0  0  0  0  0  0  0  0  0
   -0.6872    1.9636    1.1860 O   0  0  0  0  0  0  0  0  0  0  0  0
   -0.0184    1.5028    0.0103 C   0  0  0  0  0  0  0  0  0  0  0  0
    0.0021   -0.0041    0.0020 C   0  0  0  0  0  0  0  0  0  0  0  0
   -0.5042   -0.6201    0.9098 O   0  0  0  0  0  0  0  0  0  0  0  0
   -2.9717    3.2296    0.1093 C   0  0  0  0  0  0  0  0  0  0  0  0
   -4.3051    3.4119    0.8370 C   0  0  0  0  0  0  0  0  0  0  0  0
   -3.0921    3.7667   -1.3183 C   0  0  0  0  0  0  0  0  0  0  0  0
   -4.5365    6.8584    2.1069 H   0  0  0  0  0  0  0  0  0  0  0  0
   -5.0434    8.5345    2.4262 H   0  0  0  0  0  0  0  0  0  0  0  0
   -3.7422    8.2056    1.2571 H   0  0  0  0  0  0  0  0  0  0  0  0
    0.8725    7.7949    4.3072 H   0  0  0  0  0  0  0  0  0  0  0  0
    1.2730    8.1838    6.6890 H   0  0  0  0  0  0  0  0  0  0  0  0
   -0.6076    8.6258    8.2095 H   0  0  0  0  0  0  0  0  0  0  0  0
   -2.9106    8.6810    7.3629 H   0  0  0  0  0  0  0  0  0  0  0  0
   -0.1296    7.9793    1.8971 H   0  0  0  0  0  0  0  0  0  0  0  0
   -1.6794    7.9631    1.0218 H   0  0  0  0  0  0  0  0  0  0  0  0
   -2.8538    5.8801    0.6129 H   0  0  0  0  0  0  0  0  0  0  0  0
    0.8598    5.9190    2.7104 H   0  0  0  0  0  0  0  0  0  0  0  0
    1.3001    2.2110    2.3589 H   0  0  0  0  0  0  0  0  0  0  0  0
    2.7557    4.8878    2.1784 H   0  0  0  0  0  0  0  0  0  0  0  0
    3.5302    3.2951    2.3559 H   0  0  0  0  0  0  0  0  0  0  0  0
    2.6281    3.6856    0.8720 H   0  0  0  0  0  0  0  0  0  0  0  0
    0.5323    3.0766    4.5520 H   0  0  0  0  0  0  0  0  0  0  0  0
    2.3063    2.9395    4.5049 H   0  0  0  0  0  0  0  0  0  0  0  0
    1.5318    4.5322    4.3274 H   0  0  0  0  0  0  0  0  0  0  0  0
    1.0042    1.8801    0.0026 H   0  0  0  0  0  0  0  0  0  0  0  0
   -0.5455    1.8639   -0.8728 H   0  0  0  0  0  0  0  0  0  0  0  0
   -2.7163    2.1704    0.0786 H   0  0  0  0  0  0  0  0  0  0  0  0
   -4.5605    4.4712    0.8677 H   0  0  0  0  0  0  0  0  0  0  0  0
   -5.0856    2.8652    0.3078 H   0  0  0  0  0  0  0  0  0  0  0  0
   -4.2193    3.0293    1.8540 H   0  0  0  0  0  0  0  0  0  0  0  0
   -2.1422    3.6369   -1.8367 H   0  0  0  0  0  0  0  0  0  0  0  0
   -3.8726    3.2200   -1.8475 H   0  0  0  0  0  0  0  0  0  0  0  0
   -3.3475    4.8259   -1.2876 H   0  0  0  0  0  0  0  0  0  0  0  0
    0.5827   -0.6618   -1.0138 O   0  5  0  0  0  0  0  0  0  0  0  0
  1  2  1  0  0  0  0
  1 28  1  0  0  0  0
  1 29  1  0  0  0  0
  1 30  1  0  0  0  0
  2 10  1  0  0  0  0
  2  3  2  0  0  0  0
  3  4  1  0  0  0  0
  3 11  1  0  0  0  0
  4  9  2  0  0  0  0
  4  5  1  0  0  0  0
  5  6  2  0  0  0  0
  5 31  1  0  0  0  0
  6  7  1  0  0  0  0
  6 32  1  0  0  0  0
  7  8  2  0  0  0  0
  7 33  1  0  0  0  0
  8  9  1  0  0  0  0
  8 34  1  0  0  0  0
  9 10  1  0  0  0  0
 11 12  1  0  0  0  0
 11 35  1  0  0  0  0
 11 36  1  0  0  0  0
 12 17  2  0  0  0  0
 12 13  1  0  0  0  0
 13 14  2  0  0  0  0
 13 37  1  0  0  0  0
 14 15  1  0  0  0  0
 14 25  1  0  0  0  0
 15 16  2  0  0  0  0
 15 21  1  0  0  0  0
 16 17  1  0  0  0  0
 16 18  1  0  0  0  0
 17 38  1  0  0  0  0
 18 19  1  0  0  0  0
 18 20  1  0  0  0  0
 18 39  1  0  0  0  0
 19 40  1  0  0  0  0
 19 41  1  0  0  0  0
 19 42  1  0  0  0  0
 20 43  1  0  0  0  0
 20 44  1  0  0  0  0
 20 45  1  0  0  0  0
 21 22  1  0  0  0  0
 22 23  1  0  0  0  0
 22 46  1  0  0  0  0
 22 47  1  0  0  0  0
 23 24  2  0  0  0  0
 23 55  1  0  0  0  0
 25 26  1  0  0  0  0
 25 27  1  0  0  0  0
 25 48  1  0  0  0  0
 26 49  1  0  0  0  0
 26 50  1  0  0  0  0
 26 51  1  0  0  0  0
 27 52  1  0  0  0  0
 27 53  1  0  0  0  0
 27 54  1  0  0  0  0
M  CHG  1  55  -1
M  END
$$$$
ZINC03991534
  -OEChem-08230709463D

 57 60  0     1  0  0  0  0  0999 V2000
    3.0829    3.8336    1.4245 C   0  0  0  0  0  0  0  0  0  0  0  0
    2.4916    3.8826    0.0142 C   0  0  0  0  0  0  0  0  0  0  0  0
    2.3243    5.3398   -0.4114 C   0  0  0  0  0  0  0  0  0  0  0  0
    1.2093    5.9663    0.4343 C   0  0  0  0  0  0  0  0  0  0  0  0
   -0.1222    5.3513    0.0082 C   0  0  0  0  0  0  0  0  0  0  0  0
   -0.0375    3.8474    0.0166 C   0  0  0  0  0  0  0  0  0  0  0  0
    1.1630    3.1728    0.0078 C   0  0  0  0  0  0  0  0  0  0  0  0
    1.1714    1.7842    0.0005 C   0  0  0  0  0  0  0  0  0  0  0  0
   -0.0126    1.0758    0.0080 C   0  0  0  0  0  0  0  0  0  0  0  0
   -1.2175    1.7529    0.0173 C   0  0  0  0  0  0  0  0  0  0  0  0
   -1.2280    3.1327    0.0268 C   0  0  0  0  0  0  0  0  0  0  0  0
   -2.5153    0.9869    0.0229 C   0  0  1  0  0  0  0  0  0  0  0  0
   -3.3531    1.6841    0.0301 H   0  0  0  0  0  0  0  0  0  0  0  0
   -2.5949    0.0964   -1.2235 C   0  0  0  0  0  0  0  0  0  0  0  0
   -3.7758   -0.8685   -1.0850 C   0  0  0  0  0  0  0  0  0  0  0  0
   -3.4645   -1.9100   -0.0038 C   0  0  0  0  0  0  0  0  0  0  0  0
   -2.9981   -1.1855    1.2368 C   0  0  0  0  0  0  0  0  0  0  0  0
   -2.5787    0.1046    1.2432 C   0  0  0  0  0  0  0  0  0  0  0  0
   -2.2342    0.4279    2.5566 C   0  0  0  0  0  0  0  0  0  0  0  0
   -2.4632   -0.7079    3.3101 C   0  0  0  0  0  0  0  0  0  0  0  0
   -2.9252   -1.6691    2.4803 O   0  0  0  0  0  0  0  0  0  0  0  0
   -2.2510   -0.8408    4.7031 C   0  0  0  0  0  0  0  0  0  0  0  0
   -2.5187   -2.0196    5.3210 C   0  0  0  0  0  0  0  0  0  0  0  0
   -2.3068   -2.1523    6.7117 C   0  0  0  0  0  0  0  0  0  0  0  0
   -1.8844   -1.2098    7.3555 O   0  0  0  0  0  0  0  0  0  0  0  0
   -0.4702    5.8293   -1.4030 C   0  0  0  0  0  0  0  0  0  0  0  0
   -1.2176    5.8004    0.9774 C   0  0  0  0  0  0  0  0  0  0  0  0
    3.4436    3.1798   -0.9557 C   0  0  0  0  0  0  0  0  0  0  0  0
    3.2221    2.7949    1.7242 H   0  0  0  0  0  0  0  0  0  0  0  0
    4.0447    4.3464    1.4332 H   0  0  0  0  0  0  0  0  0  0  0  0
    2.4030    4.3247    2.1208 H   0  0  0  0  0  0  0  0  0  0  0  0
    2.0543    5.3853   -1.4664 H   0  0  0  0  0  0  0  0  0  0  0  0
    3.2567    5.8799   -0.2475 H   0  0  0  0  0  0  0  0  0  0  0  0
    1.1854    7.0436    0.2700 H   0  0  0  0  0  0  0  0  0  0  0  0
    1.3881    5.7598    1.4895 H   0  0  0  0  0  0  0  0  0  0  0  0
    2.1125    1.2544   -0.0109 H   0  0  0  0  0  0  0  0  0  0  0  0
    0.0021   -0.0041    0.0020 H   0  0  0  0  0  0  0  0  0  0  0  0
   -2.1699    3.6610    0.0382 H   0  0  0  0  0  0  0  0  0  0  0  0
   -2.7354    0.7193   -2.1068 H   0  0  0  0  0  0  0  0  0  0  0  0
   -1.6708   -0.4728   -1.3231 H   0  0  0  0  0  0  0  0  0  0  0  0
   -3.9461   -1.3725   -2.0363 H   0  0  0  0  0  0  0  0  0  0  0  0
   -4.6690   -0.3102   -0.8048 H   0  0  0  0  0  0  0  0  0  0  0  0
   -2.6793   -2.5797   -0.3546 H   0  0  0  0  0  0  0  0  0  0  0  0
   -4.3631   -2.4839    0.2224 H   0  0  0  0  0  0  0  0  0  0  0  0
   -1.8622    1.3770    2.9133 H   0  0  0  0  0  0  0  0  0  0  0  0
   -1.8761   -0.0045    5.2744 H   0  0  0  0  0  0  0  0  0  0  0  0
   -2.8935   -2.8559    4.7497 H   0  0  0  0  0  0  0  0  0  0  0  0
   -1.4295    5.4077   -1.7031 H   0  0  0  0  0  0  0  0  0  0  0  0
   -0.5324    6.9174   -1.4130 H   0  0  0  0  0  0  0  0  0  0  0  0
    0.3035    5.5031   -2.0981 H   0  0  0  0  0  0  0  0  0  0  0  0
   -0.9779    5.4536    1.9825 H   0  0  0  0  0  0  0  0  0  0  0  0
   -1.2820    6.8885    0.9741 H   0  0  0  0  0  0  0  0  0  0  0  0
   -2.1734    5.3790    0.6659 H   0  0  0  0  0  0  0  0  0  0  0  0
    3.0215    3.2037   -1.9604 H   0  0  0  0  0  0  0  0  0  0  0  0
    4.4064    3.6907   -0.9539 H   0  0  0  0  0  0  0  0  0  0  0  0
    3.5810    2.1445   -0.6438 H   0  0  0  0  0  0  0  0  0  0  0  0
   -2.5730   -3.3244    7.3262 O   0  5  0  0  0  0  0  0  0  0  0  0
  1  2  1  0  0  0  0
  1 29  1  0  0  0  0
  1 30  1  0  0  0  0
  1 31  1  0  0  0  0
  2  7  1  0  0  0  0
  2  3  1  0  0  0  0
  2 28  1  0  0  0  0
  3  4  1  0  0  0  0
  3 32  1  0  0  0  0
  3 33  1  0  0  0  0
  4  5  1  0  0  0  0
  4 34  1  0  0  0  0
  4 35  1  0  0  0  0
  5  6  1  0  0  0  0
  5 26  1  0  0  0  0
  5 27  1  0  0  0  0
  6 11  2  0  0  0  0
  6  7  1  0  0  0  0
  7  8  2  0  0  0  0
  8  9  1  0  0  0  0
  8 36  1  0  0  0  0
  9 10  2  0  0  0  0
  9 37  1  0  0  0  0
 10 11  1  0  0  0  0
 10 12  1  0  0  0  0
 11 38  1  0  0  0  0
 12 13  1  0  0  0  0
 12 18  1  0  0  0  0
 12 14  1  0  0  0  0
 14 15  1  0  0  0  0
 14 39  1  0  0  0  0
 14 40  1  0  0  0  0
 15 16  1  0  0  0  0
 15 41  1  0  0  0  0
 15 42  1  0  0  0  0
 16 17  1  0  0  0  0
 16 43  1  0  0  0  0
 16 44  1  0  0  0  0
 17 21  1  0  0  0  0
 17 18  2  0  0  0  0
 18 19  1  0  0  0  0
 19 20  2  0  0  0  0
 19 45  1  0  0  0  0
 20 21  1  0  0  0  0
 20 22  1  0  0  0  0
 22 23  2  0  0  0  0
 22 46  1  0  0  0  0
 23 24  1  0  0  0  0
 23 47  1  0  0  0  0
 24 25  2  0  0  0  0
 24 57  1  0  0  0  0
 26 48  1  0  0  0  0
 26 49  1  0  0  0  0
 26 50  1  0  0  0  0
 27 51  1  0  0  0  0
 27 52  1  0  0  0  0
 27 53  1  0  0  0  0
 28 54  1  0  0  0  0
 28 55  1  0  0  0  0
 28 56  1  0  0  0  0
M  CHG  1  57  -1
M  END
$$$$
ZINC03991654
  -OEChem-08230709463D

 53 56  0     0  0  0  0  0  0999 V2000
    3.1767    2.6623    2.9375 C   0  0  0  0  0  0  0  0  0  0  0  0
    3.9761    2.6220    1.6607 C   0  0  0  0  0  0  0  0  0  0  0  0
    5.1654    1.9304    1.6223 C   0  0  0  0  0  0  0  0  0  0  0  0
    5.9120    1.8934    0.4483 C   0  0  0  0  0  0  0  0  0  0  0  0
    5.4401    2.5620   -0.6982 C   0  0  0  0  0  0  0  0  0  0  0  0
    6.3947    2.3517   -1.7221 C   0  0  0  0  0  0  0  0  0  0  0  0
    7.3947    1.5887   -1.2060 C   0  0  0  0  0  0  0  0  0  0  0  0
    7.1107    1.3038    0.1158 N   0  0  0  0  0  0  0  0  0  0  0  0
    7.6648    0.7756    0.7115 H   0  0  0  0  0  0  0  0  0  0  0  0
    8.5868    1.1391   -1.9370 C   0  0  0  0  0  0  0  0  0  0  0  0
    8.7379    1.4492   -3.1027 O   0  0  0  0  0  0  0  0  0  0  0  0
    4.2247    3.2572   -0.6462 C   0  0  0  0  0  0  0  0  0  0  0  0
    3.5014    3.2805    0.5278 C   0  0  0  0  0  0  0  0  0  0  0  0
    2.3216    3.9542    0.5818 O   0  0  0  0  0  0  0  0  0  0  0  0
    1.1850    3.2772    0.2679 C   0  0  0  0  0  0  0  0  0  0  0  0
    1.2542    1.9371   -0.0943 C   0  0  0  0  0  0  0  0  0  0  0  0
    0.1059    1.2413   -0.4142 C   0  0  0  0  0  0  0  0  0  0  0  0
   -1.1259    1.8777   -0.3823 C   0  0  0  0  0  0  0  0  0  0  0  0
   -1.2034    3.2271   -0.0134 C   0  0  0  0  0  0  0  0  0  0  0  0
   -0.0364    3.9239    0.3094 C   0  0  0  0  0  0  0  0  0  0  0  0
   -2.5104    3.9102    0.0285 C   0  0  0  0  0  0  0  0  0  0  0  0
   -3.2739    3.8204   -0.9136 O   0  0  0  0  0  0  0  0  0  0  0  0
   -2.8582    4.6339    1.1110 N   0  0  0  0  0  0  0  0  0  0  0  0
   -1.9014    4.8225    2.2043 C   0  0  0  0  0  0  0  0  0  0  0  0
   -4.1930    5.2319    1.1945 C   0  0  0  0  0  0  0  0  0  0  0  0
   -4.2048    6.6232    1.8494 C   0  0  0  0  0  0  0  0  0  0  0  0
   -5.5016    6.1933    2.5553 C   0  0  0  0  0  0  0  0  0  0  0  0
   -5.0124    4.7436    2.4007 C   0  0  0  0  0  0  0  0  0  0  0  0
   -2.2536    1.1940   -0.7029 O   0  0  0  0  0  0  0  0  0  0  0  0
    3.7103    3.9754   -1.8670 C   0  0  0  0  0  0  0  0  0  0  0  0
    2.4846    1.8204    2.9596 H   0  0  0  0  0  0  0  0  0  0  0  0
    3.8518    2.6001    3.7910 H   0  0  0  0  0  0  0  0  0  0  0  0
    2.6154    3.5954    2.9855 H   0  0  0  0  0  0  0  0  0  0  0  0
    5.5218    1.4203    2.5050 H   0  0  0  0  0  0  0  0  0  0  0  0
    6.3385    2.7294   -2.7324 H   0  0  0  0  0  0  0  0  0  0  0  0
    2.2112    1.4376   -0.1251 H   0  0  0  0  0  0  0  0  0  0  0  0
    0.1673    0.2001   -0.6944 H   0  0  0  0  0  0  0  0  0  0  0  0
   -0.0882    4.9653    0.5910 H   0  0  0  0  0  0  0  0  0  0  0  0
   -1.3493    5.7492    2.0481 H   0  0  0  0  0  0  0  0  0  0  0  0
   -2.4378    4.8744    3.1517 H   0  0  0  0  0  0  0  0  0  0  0  0
   -1.2051    3.9841    2.2264 H   0  0  0  0  0  0  0  0  0  0  0  0
   -4.7364    5.1875    0.2507 H   0  0  0  0  0  0  0  0  0  0  0  0
   -3.3716    6.7917    2.5317 H   0  0  0  0  0  0  0  0  0  0  0  0
   -4.3437    7.4387    1.1397 H   0  0  0  0  0  0  0  0  0  0  0  0
   -6.4034    6.4131    1.9838 H   0  0  0  0  0  0  0  0  0  0  0  0
   -5.5650    6.5246    3.5918 H   0  0  0  0  0  0  0  0  0  0  0  0
   -5.8032    4.0418    2.1360 H   0  0  0  0  0  0  0  0  0  0  0  0
   -4.4000    4.3970    3.2331 H   0  0  0  0  0  0  0  0  0  0  0  0
   -2.6793    0.7621    0.0504 H   0  0  0  0  0  0  0  0  0  0  0  0
    4.0848    4.9991   -1.8711 H   0  0  0  0  0  0  0  0  0  0  0  0
    4.0535    3.4594   -2.7637 H   0  0  0  0  0  0  0  0  0  0  0  0
    2.6205    3.9873   -1.8493 H   0  0  0  0  0  0  0  0  0  0  0  0
    9.5135    0.3823   -1.3150 O   0  5  0  0  0  0  0  0  0  0  0  0
  1  2  1  0  0  0  0
  1 31  1  0  0  0  0
  1 32  1  0  0  0  0
  1 33  1  0  0  0  0
  2 13  2  0  0  0  0
  2  3  1  0  0  0  0
  3  4  2  0  0  0  0
  3 34  1  0  0  0  0
  4  8  1  0  0  0  0
  4  5  1  0  0  0  0
  5  6  1  0  0  0  0
  5 12  2  0  0  0  0
  6  7  2  0  0  0  0
  6 35  1  0  0  0  0
  7  8  1  0  0  0  0
  7 10  1  0  0  0  0
  8  9  1  0  0  0  0
 10 11  2  0  0  0  0
 10 53  1  0  0  0  0
 12 13  1  0  0  0  0
 12 30  1  0  0  0  0
 13 14  1  0  0  0  0
 14 15  1  0  0  0  0
 15 20  2  0  0  0  0
 15 16  1  0  0  0  0
 16 17  2  0  0  0  0
 16 36  1  0  0  0  0
 17 18  1  0  0  0  0
 17 37  1  0  0  0  0
 18 19  2  0  0  0  0
 18 29  1  0  0  0  0
 19 20  1  0  0  0  0
 19 21  1  0  0  0  0
 20 38  1  0  0  0  0
 21 22  2  0  0  0  0
 21 23  1  0  0  0  0
 23 24  1  0  0  0  0
 23 25  1  0  0  0  0
 24 39  1  0  0  0  0
 24 40  1  0  0  0  0
 24 41  1  0  0  0  0
 25 28  1  0  0  0  0
 25 26  1  0  0  0  0
 25 42  1  0  0  0  0
 26 27  1  0  0  0  0
 26 43  1  0  0  0  0
 26 44  1  0  0  0  0
 27 28  1  0  0  0  0
 27 45  1  0  0  0  0
 27 46  1  0  0  0  0
 28 47  1  0  0  0  0
 28 48  1  0  0  0  0
 29 49  1  0  0  0  0
 30 50  1  0  0  0  0
 30 51  1  0  0  0  0
 30 52  1  0  0  0  0
M  CHG  1  53  -1
M  END
$$$$
ZINC03998087
  -OEChem-08230709463D

 55 57  0     1  0  0  0  0  0999 V2000
    3.7607   -1.1708   -1.4340 C   0  0  0  0  0  0  0  0  0  0  0  0
    3.7112   -0.8323    0.0573 C   0  0  0  0  0  0  0  0  0  0  0  0
    4.9313    0.0126    0.4293 C   0  0  0  0  0  0  0  0  0  0  0  0
    3.7183   -2.1258    0.8743 C   0  0  0  0  0  0  0  0  0  0  0  0
    2.4344   -0.0452    0.3594 C   0  0  1  0  0  0  0  0  0  0  0  0
    2.3984    0.2031    1.4202 H   0  0  0  0  0  0  0  0  0  0  0  0
    2.4166    1.2420   -0.4700 C   0  0  0  0  0  0  0  0  0  0  0  0
    1.2794    2.1500    0.0014 C   0  0  0  0  0  0  0  0  0  0  0  0
   -0.0163    1.3485    0.0095 C   0  0  0  0  0  0  0  0  0  0  0  0
   -1.3380    1.9462    0.0192 C   0  0  0  0  0  0  0  0  0  0  0  0
   -2.4259    1.1013    0.0308 C   0  0  0  0  0  0  0  0  0  0  0  0
   -1.7046   -0.4742    0.0151 S   0  0  0  0  0  0  0  0  0  0  0  0
    0.0021   -0.0041    0.0020 C   0  0  0  0  0  0  0  0  0  0  0  0
    1.2079   -0.8911   -0.0131 C   0  0  0  0  0  0  0  0  0  0  0  0
   -1.5110    3.4079    0.0285 C   0  0  0  0  0  0  0  0  0  0  0  0
   -0.5364    4.1357    0.0280 O   0  0  0  0  0  0  0  0  0  0  0  0
   -2.7493    3.9399    0.0374 N   0  0  0  0  0  0  0  0  0  0  0  0
   -2.9140    5.3311    0.0462 N   0  0  0  0  0  0  0  0  0  0  0  0
   -4.1522    5.8631    0.0552 C   0  0  0  0  0  0  0  0  0  0  0  0
   -5.1240    5.1375    0.0557 O   0  0  0  0  0  0  0  0  0  0  0  0
   -4.3293    7.3597    0.0647 C   0  0  1  0  0  0  0  0  0  0  0  0
   -3.8520    7.7795    0.9501 H   0  0  0  0  0  0  0  0  0  0  0  0
   -3.7032    7.9597   -1.1960 C   0  0  0  0  0  0  0  0  0  0  0  0
   -4.0981    9.4010   -1.3336 C   0  0  0  0  0  0  0  0  0  0  0  0
   -5.0885    9.9450   -0.7022 C   0  0  0  0  0  0  0  0  0  0  0  0
   -5.9741    9.2130    0.2632 C   0  0  0  0  0  0  0  0  0  0  0  0
   -5.8246    7.7019    0.0738 C   0  0  2  0  0  0  0  0  0  0  0  0
   -6.2749    7.4017   -0.8723 H   0  0  0  0  0  0  0  0  0  0  0  0
   -6.5027    6.9795    1.2093 C   0  0  0  0  0  0  0  0  0  0  0  0
   -5.8596    6.2631    1.9394 O   0  0  0  0  0  0  0  0  0  0  0  0
    3.7556   -0.2493   -2.0161 H   0  0  0  0  0  0  0  0  0  0  0  0
    4.6703   -1.7315   -1.6493 H   0  0  0  0  0  0  0  0  0  0  0  0
    2.8915   -1.7727   -1.6990 H   0  0  0  0  0  0  0  0  0  0  0  0
    4.8960    0.2537    1.4917 H   0  0  0  0  0  0  0  0  0  0  0  0
    5.8408   -0.5482    0.2140 H   0  0  0  0  0  0  0  0  0  0  0  0
    4.9262    0.9341   -0.1528 H   0  0  0  0  0  0  0  0  0  0  0  0
    2.8491   -2.7278    0.6093 H   0  0  0  0  0  0  0  0  0  0  0  0
    4.6278   -2.6866    0.6591 H   0  0  0  0  0  0  0  0  0  0  0  0
    3.6830   -1.8847    1.9368 H   0  0  0  0  0  0  0  0  0  0  0  0
    3.3674    1.7618   -0.3521 H   0  0  0  0  0  0  0  0  0  0  0  0
    2.2693    0.9934   -1.5210 H   0  0  0  0  0  0  0  0  0  0  0  0
    1.1814    2.9962   -0.6786 H   0  0  0  0  0  0  0  0  0  0  0  0
    1.4927    2.5100    1.0079 H   0  0  0  0  0  0  0  0  0  0  0  0
   -3.4747    1.3586    0.0424 H   0  0  0  0  0  0  0  0  0  0  0  0
    1.0818   -1.6947    0.7125 H   0  0  0  0  0  0  0  0  0  0  0  0
    1.3409   -1.3132   -1.0092 H   0  0  0  0  0  0  0  0  0  0  0  0
   -3.5265    3.3595    0.0378 H   0  0  0  0  0  0  0  0  0  0  0  0
   -2.1367    5.9115    0.0459 H   0  0  0  0  0  0  0  0  0  0  0  0
   -2.6176    7.8873   -1.1299 H   0  0  0  0  0  0  0  0  0  0  0  0
   -4.0477    7.4058   -2.0693 H   0  0  0  0  0  0  0  0  0  0  0  0
   -3.5197   10.0231   -2.0006 H   0  0  0  0  0  0  0  0  0  0  0  0
   -5.2903   10.9907   -0.8816 H   0  0  0  0  0  0  0  0  0  0  0  0
   -7.0117    9.4980    0.0891 H   0  0  0  0  0  0  0  0  0  0  0  0
   -5.6947    9.4788    1.2827 H   0  0  0  0  0  0  0  0  0  0  0  0
   -7.8211    7.1321    1.4098 O   0  5  0  0  0  0  0  0  0  0  0  0
  1  2  1  0  0  0  0
  1 31  1  0  0  0  0
  1 32  1  0  0  0  0
  1 33  1  0  0  0  0
  2  3  1  0  0  0  0
  2  4  1  0  0  0  0
  2  5  1  0  0  0  0
  3 34  1  0  0  0  0
  3 35  1  0  0  0  0
  3 36  1  0  0  0  0
  4 37  1  0  0  0  0
  4 38  1  0  0  0  0
  4 39  1  0  0  0  0
  5  6  1  0  0  0  0
  5 14  1  0  0  0  0
  5  7  1  0  0  0  0
  7  8  1  0  0  0  0
  7 40  1  0  0  0  0
  7 41  1  0  0  0  0
  8  9  1  0  0  0  0
  8 42  1  0  0  0  0
  8 43  1  0  0  0  0
  9 13  2  0  0  0  0
  9 10  1  0  0  0  0
 10 11  2  0  0  0  0
 10 15  1  0  0  0  0
 11 12  1  0  0  0  0
 11 44  1  0  0  0  0
 12 13  1  0  0  0  0
 13 14  1  0  0  0  0
 14 45  1  0  0  0  0
 14 46  1  0  0  0  0
 15 16  2  0  0  0  0
 15 17  1  0  0  0  0
 17 18  1  0  0  0  0
 17 47  1  0  0  0  0
 18 19  1  0  0  0  0
 18 48  1  0  0  0  0
 19 20  2  0  0  0  0
 19 21  1  0  0  0  0
 21 22  1  0  0  0  0
 21 27  1  0  0  0  0
 21 23  1  0  0  0  0
 23 24  1  0  0  0  0
 23 49  1  0  0  0  0
 23 50  1  0  0  0  0
 24 25  2  0  0  0  0
 24 51  1  0  0  0  0
 25 26  1  0  0  0  0
 25 52  1  0  0  0  0
 26 27  1  0  0  0  0
 26 53  1  0  0  0  0
 26 54  1  0  0  0  0
 27 28  1  0  0  0  0
 27 29  1  0  0  0  0
 29 30  2  0  0  0  0
 29 55  1  0  0  0  0
M  CHG  1  55  -1
M  END
$$$$
ZINC03998144
  -OEChem-08230709463D

 56 58  0     1  0  0  0  0  0999 V2000
    3.6118   -0.7879    0.1221 C   0  0  0  0  0  0  0  0  0  0  0  0
    2.3885    0.1310    0.1167 C   0  0  0  0  0  0  0  0  0  0  0  0
    1.1796   -0.6726    0.0855 O   0  0  0  0  0  0  0  0  0  0  0  0
    0.0057   -0.0114    0.0769 C   0  0  0  0  0  0  0  0  0  0  0  0
   -1.1810   -0.7136    0.0475 C   0  0  0  0  0  0  0  0  0  0  0  0
   -2.4773    0.0276    0.1858 C   0  0  1  0  0  0  0  0  0  0  0  0
   -2.5593    0.7518   -0.6248 H   0  0  0  0  0  0  0  0  0  0  0  0
   -3.6514   -0.9162    0.1262 C   0  0  3  0  0  0  0  0  0  0  0  0
   -3.4702   -2.2687   -0.0388 C   0  0  0  0  0  0  0  0  0  0  0  0
   -4.6594   -3.1994   -0.1060 C   0  0  0  0  0  0  0  0  0  0  0  0
   -5.8018   -2.6333    0.7394 C   0  0  0  0  0  0  0  0  0  0  0  0
   -6.1590   -1.2422    0.2060 C   0  0  0  0  0  0  0  0  0  0  0  0
   -4.9333   -0.3722    0.2459 C   0  0  0  0  0  0  0  0  0  0  0  0
   -5.0598    0.8296    0.3858 O   0  0  0  0  0  0  0  0  0  0  0  0
   -5.3561   -2.5251    2.1991 C   0  0  0  0  0  0  0  0  0  0  0  0
   -7.0211   -3.5517    0.6368 C   0  0  0  0  0  0  0  0  0  0  0  0
   -2.2557   -2.8026   -0.1441 N   0  0  0  0  0  0  0  0  0  0  0  0
   -1.1521   -2.0892   -0.1091 C   0  0  0  0  0  0  0  0  0  0  0  0
    0.1776   -2.7857   -0.2427 C   0  0  0  0  0  0  0  0  0  0  0  0
   -2.4971    0.7571    1.5042 C   0  0  0  0  0  0  0  0  0  0  0  0
   -2.3947    0.0457    2.6865 C   0  0  0  0  0  0  0  0  0  0  0  0
   -2.4074    0.7076    3.8967 C   0  0  0  0  0  0  0  0  0  0  0  0
   -2.5345    2.0977    3.9271 C   0  0  0  0  0  0  0  0  0  0  0  0
   -2.6427    2.8090    2.7305 C   0  0  0  0  0  0  0  0  0  0  0  0
   -2.6234    2.1349    1.5271 C   0  0  0  0  0  0  0  0  0  0  0  0
   -2.5539    2.8128    5.2197 C   0  0  0  0  0  0  0  0  0  0  0  0
   -2.6643    4.0223    5.2430 O   0  0  0  0  0  0  0  0  0  0  0  0
   -2.4494    2.1237    6.3724 O   0  0  0  0  0  0  0  0  0  0  0  0
   -2.4758    2.8918    7.6044 C   0  0  0  0  0  0  0  0  0  0  0  0
   -0.0089    1.3356    0.0970 O   0  0  0  0  0  0  0  0  0  0  0  0
    3.6078   -1.4034   -0.7774 H   0  0  0  0  0  0  0  0  0  0  0  0
    4.5193   -0.1847    0.1456 H   0  0  0  0  0  0  0  0  0  0  0  0
    3.5797   -1.4304    1.0021 H   0  0  0  0  0  0  0  0  0  0  0  0
    2.4206    0.7735   -0.7633 H   0  0  0  0  0  0  0  0  0  0  0  0
    2.3925    0.7465    1.0163 H   0  0  0  0  0  0  0  0  0  0  0  0
   -4.3753   -4.1794    0.2773 H   0  0  0  0  0  0  0  0  0  0  0  0
   -4.9870   -3.2955   -1.1412 H   0  0  0  0  0  0  0  0  0  0  0  0
   -6.8767   -0.8411    0.7752 H   0  0  0  0  0  0  0  0  0  0  0  0
   -6.5136   -1.3256   -0.8213 H   0  0  0  0  0  0  0  0  0  0  0  0
   -6.1659   -2.1055    2.7961 H   0  0  0  0  0  0  0  0  0  0  0  0
   -5.1027   -3.5161    2.5760 H   0  0  0  0  0  0  0  0  0  0  0  0
   -4.4824   -1.8769    2.2652 H   0  0  0  0  0  0  0  0  0  0  0  0
   -7.3289   -3.6320   -0.4057 H   0  0  0  0  0  0  0  0  0  0  0  0
   -6.7642   -4.5405    1.0169 H   0  0  0  0  0  0  0  0  0  0  0  0
   -7.8389   -3.1371    1.2263 H   0  0  0  0  0  0  0  0  0  0  0  0
   -3.9514   -1.0156   -0.8226 H   0  0  0  0  0  0  0  0  0  0  0  0
    0.2697   -3.5449    0.5340 H   0  0  0  0  0  0  0  0  0  0  0  0
    0.7266   -2.3623   -1.0838 H   0  0  0  0  0  0  0  0  0  0  0  0
   -2.3006   -1.0299    2.6616 H   0  0  0  0  0  0  0  0  0  0  0  0
   -2.3235    0.1515    4.8187 H   0  0  0  0  0  0  0  0  0  0  0  0
   -2.7410    3.8844    2.7470 H   0  0  0  0  0  0  0  0  0  0  0  0
   -2.7067    2.6837    0.6008 H   0  0  0  0  0  0  0  0  0  0  0  0
   -1.6463    3.5989    7.6095 H   0  0  0  0  0  0  0  0  0  0  0  0
   -3.4176    3.4361    7.6730 H   0  0  0  0  0  0  0  0  0  0  0  0
   -2.3833    2.2169    8.4554 H   0  0  0  0  0  0  0  0  0  0  0  0
    0.8478    1.7836    0.1174 H   0  0  0  0  0  0  0  0  0  0  0  0
  1  2  1  0  0  0  0
  1 31  1  0  0  0  0
  1 32  1  0  0  0  0
  1 33  1  0  0  0  0
  2  3  1  0  0  0  0
  2 34  1  0  0  0  0
  2 35  1  0  0  0  0
  3  4  1  0  0  0  0
  4  5  2  0  0  0  0
  4 30  1  0  0  0  0
  5 18  1  0  0  0  0
  5  6  1  0  0  0  0
  6  7  1  0  0  0  0
  6  8  1  0  0  0  0
  6 20  1  0  0  0  0
  8 13  1  0  0  0  0
  8  9  1  0  0  0  0
  8 46  1  0  0  0  0
  9 10  1  0  0  0  0
  9 17  2  0  0  0  0
 10 11  1  0  0  0  0
 10 36  1  0  0  0  0
 10 37  1  0  0  0  0
 11 12  1  0  0  0  0
 11 15  1  0  0  0  0
 11 16  1  0  0  0  0
 12 13  1  0  0  0  0
 12 38  1  0  0  0  0
 12 39  1  0  0  0  0
 13 14  2  0  0  0  0
 15 40  1  0  0  0  0
 15 41  1  0  0  0  0
 15 42  1  0  0  0  0
 16 43  1  0  0  0  0
 16 44  1  0  0  0  0
 16 45  1  0  0  0  0
 17 18  1  0  0  0  0
 18 19  2  0  0  0  0
 19 47  1  0  0  0  0
 19 48  1  0  0  0  0
 20 25  2  0  0  0  0
 20 21  1  0  0  0  0
 21 22  2  0  0  0  0
 21 49  1  0  0  0  0
 22 23  1  0  0  0  0
 22 50  1  0  0  0  0
 23 24  2  0  0  0  0
 23 26  1  0  0  0  0
 24 25  1  0  0  0  0
 24 51  1  0  0  0  0
 25 52  1  0  0  0  0
 26 27  2  0  0  0  0
 26 28  1  0  0  0  0
 28 29  1  0  0  0  0
 29 53  1  0  0  0  0
 29 54  1  0  0  0  0
 29 55  1  0  0  0  0
 30 56  1  0  0  0  0
M  END
$$$$
ZINC03998144
  -OEChem-08230709463D

 56 58  0     1  0  0  0  0  0999 V2000
    3.6118   -0.7878    0.1212 C   0  0  0  0  0  0  0  0  0  0  0  0
    2.3885    0.1311    0.1159 C   0  0  0  0  0  0  0  0  0  0  0  0
    1.1796   -0.6725    0.0849 O   0  0  0  0  0  0  0  0  0  0  0  0
    0.0057   -0.0113    0.0764 C   0  0  0  0  0  0  0  0  0  0  0  0
   -1.1810   -0.7136    0.0472 C   0  0  0  0  0  0  0  0  0  0  0  0
   -2.4773    0.0276    0.1858 C   0  0  1  0  0  0  0  0  0  0  0  0
   -2.5593    0.7518   -0.6248 H   0  0  0  0  0  0  0  0  0  0  0  0
   -3.6514   -0.9162    0.1262 C   0  0  0  0  0  0  0  0  0  0  0  0
   -3.4702   -2.2687   -0.0388 C   0  0  0  0  0  0  0  0  0  0  0  0
   -4.6594   -3.1994   -0.1060 C   0  0  0  0  0  0  0  0  0  0  0  0
   -5.8029   -2.6330    0.7361 C   0  0  0  0  0  0  0  0  0  0  0  0
   -6.1592   -1.2418    0.2025 C   0  0  0  0  0  0  0  0  0  0  0  0
   -4.9334   -0.3720    0.2442 C   0  0  0  0  0  0  0  0  0  0  0  0
   -5.0599    0.8298    0.3842 O   0  0  0  0  0  0  0  0  0  0  0  0
   -5.3592   -2.5252    2.1964 C   0  0  0  0  0  0  0  0  0  0  0  0
   -7.0222   -3.5512    0.6316 C   0  0  0  0  0  0  0  0  0  0  0  0
   -2.2557   -2.8026   -0.1442 N   0  0  0  0  0  0  0  0  0  0  0  0
   -1.1521   -2.0892   -0.1094 C   0  0  0  0  0  0  0  0  0  0  0  0
    0.1776   -2.7856   -0.2432 C   0  0  0  0  0  0  0  0  0  0  0  0
   -2.4971    0.7571    1.5042 C   0  0  0  0  0  0  0  0  0  0  0  0
   -2.3947    0.0457    2.6865 C   0  0  0  0  0  0  0  0  0  0  0  0
   -2.4074    0.7076    3.8967 C   0  0  0  0  0  0  0  0  0  0  0  0
   -2.5345    2.0977    3.9271 C   0  0  0  0  0  0  0  0  0  0  0  0
   -2.6427    2.8090    2.7305 C   0  0  0  0  0  0  0  0  0  0  0  0
   -2.6234    2.1349    1.5271 C   0  0  0  0  0  0  0  0  0  0  0  0
   -2.5539    2.8128    5.2197 C   0  0  0  0  0  0  0  0  0  0  0  0
   -2.6643    4.0223    5.2430 O   0  0  0  0  0  0  0  0  0  0  0  0
   -2.4494    2.1237    6.3724 O   0  0  0  0  0  0  0  0  0  0  0  0
   -2.4758    2.8918    7.6044 C   0  0  0  0  0  0  0  0  0  0  0  0
   -0.0089    1.3357    0.0965 O   0  0  0  0  0  0  0  0  0  0  0  0
    3.6077   -1.4033   -0.7783 H   0  0  0  0  0  0  0  0  0  0  0  0
    4.5193   -0.1846    0.1446 H   0  0  0  0  0  0  0  0  0  0  0  0
    3.5798   -1.4303    1.0012 H   0  0  0  0  0  0  0  0  0  0  0  0
    2.4205    0.7736   -0.7641 H   0  0  0  0  0  0  0  0  0  0  0  0
    2.3926    0.7466    1.0155 H   0  0  0  0  0  0  0  0  0  0  0  0
   -4.3996   -4.0982    0.2471 H   0  0  0  0  0  0  0  0  0  0  0  0
   -4.9870   -3.2955   -1.1412 H   0  0  0  0  0  0  0  0  0  0  0  0
   -6.8776   -0.8407    0.7708 H   0  0  0  0  0  0  0  0  0  0  0  0
   -6.5124   -1.3249   -0.8253 H   0  0  0  0  0  0  0  0  0  0  0  0
   -6.1698   -2.1056    2.7924 H   0  0  0  0  0  0  0  0  0  0  0  0
   -5.1065   -3.5163    2.5735 H   0  0  0  0  0  0  0  0  0  0  0  0
   -4.4855   -1.8772    2.2639 H   0  0  0  0  0  0  0  0  0  0  0  0
   -7.3286   -3.6313   -0.4113 H   0  0  0  0  0  0  0  0  0  0  0  0
   -6.7660   -4.5401    1.0119 H   0  0  0  0  0  0  0  0  0  0  0  0
   -7.8408   -3.1366    1.2201 H   0  0  0  0  0  0  0  0  0  0  0  0
    0.0805   -3.5759   -0.8482 H   0  0  0  0  0  0  0  0  0  0  0  0
    0.2698   -3.5448    0.5335 H   0  0  0  0  0  0  0  0  0  0  0  0
    0.7265   -2.3622   -1.0844 H   0  0  0  0  0  0  0  0  0  0  0  0
   -2.3006   -1.0299    2.6616 H   0  0  0  0  0  0  0  0  0  0  0  0
   -2.3235    0.1515    4.8187 H   0  0  0  0  0  0  0  0  0  0  0  0
   -2.7410    3.8844    2.7470 H   0  0  0  0  0  0  0  0  0  0  0  0
   -2.7067    2.6837    0.6008 H   0  0  0  0  0  0  0  0  0  0  0  0
   -1.6463    3.5989    7.6095 H   0  0  0  0  0  0  0  0  0  0  0  0
   -3.4176    3.4361    7.6730 H   0  0  0  0  0  0  0  0  0  0  0  0
   -2.3833    2.2169    8.4554 H   0  0  0  0  0  0  0  0  0  0  0  0
    0.8478    1.7837    0.1168 H   0  0  0  0  0  0  0  0  0  0  0  0
  1  2  1  0  0  0  0
  1 31  1  0  0  0  0
  1 32  1  0  0  0  0
  1 33  1  0  0  0  0
  2  3  1  0  0  0  0
  2 34  1  0  0  0  0
  2 35  1  0  0  0  0
  3  4  1  0  0  0  0
  4  5  2  0  0  0  0
  4 30  1  0  0  0  0
  5 18  1  0  0  0  0
  5  6  1  0  0  0  0
  6  7  1  0  0  0  0
  6  8  1  0  0  0  0
  6 20  1  0  0  0  0
  8 13  1  0  0  0  0
  8  9  2  0  0  0  0
  9 10  1  0  0  0  0
  9 17  1  0  0  0  0
 10 11  1  0  0  0  0
 10 36  1  0  0  0  0
 10 37  1  0  0  0  0
 11 12  1  0  0  0  0
 11 15  1  0  0  0  0
 11 16  1  0  0  0  0
 12 13  1  0  0  0  0
 12 38  1  0  0  0  0
 12 39  1  0  0  0  0
 13 14  2  0  0  0  0
 15 40  1  0  0  0  0
 15 41  1  0  0  0  0
 15 42  1  0  0  0  0
 16 43  1  0  0  0  0
 16 44  1  0  0  0  0
 16 45  1  0  0  0  0
 17 18  2  0  0  0  0
 18 19  1  0  0  0  0
 19 47  1  0  0  0  0
 19 48  1  0  0  0  0
 19 46  1  0  0  0  0
 20 25  2  0  0  0  0
 20 21  1  0  0  0  0
 21 22  2  0  0  0  0
 21 49  1  0  0  0  0
 22 23  1  0  0  0  0
 22 50  1  0  0  0  0
 23 24  2  0  0  0  0
 23 26  1  0  0  0  0
 24 25  1  0  0  0  0
 24 51  1  0  0  0  0
 25 52  1  0  0  0  0
 26 27  2  0  0  0  0
 26 28  1  0  0  0  0
 28 29  1  0  0  0  0
 29 53  1  0  0  0  0
 29 54  1  0  0  0  0
 29 55  1  0  0  0  0
 30 56  1  0  0  0  0
M  END
$$$$
ZINC03998144
  -OEChem-08230709463D

 56 58  0     1  0  0  0  0  0999 V2000
    3.6118   -0.7879    0.1217 C   0  0  0  0  0  0  0  0  0  0  0  0
    2.3885    0.1310    0.1165 C   0  0  0  0  0  0  0  0  0  0  0  0
    1.1796   -0.6726    0.0853 O   0  0  0  0  0  0  0  0  0  0  0  0
    0.0057   -0.0114    0.0769 C   0  0  0  0  0  0  0  0  0  0  0  0
   -1.1810   -0.7136    0.0475 C   0  0  0  0  0  0  0  0  0  0  0  0
   -2.4773    0.0276    0.1859 C   0  0  1  0  0  0  0  0  0  0  0  0
   -2.5594    0.7519   -0.6246 H   0  0  0  0  0  0  0  0  0  0  0  0
   -3.6514   -0.9162    0.1262 C   0  0  3  0  0  0  0  0  0  0  0  0
   -3.4702   -2.2687   -0.0388 C   0  0  0  0  0  0  0  0  0  0  0  0
   -4.6594   -3.1994   -0.1060 C   0  0  0  0  0  0  0  0  0  0  0  0
   -5.8018   -2.6333    0.7394 C   0  0  0  0  0  0  0  0  0  0  0  0
   -6.1590   -1.2422    0.2060 C   0  0  0  0  0  0  0  0  0  0  0  0
   -4.9333   -0.3722    0.2459 C   0  0  0  0  0  0  0  0  0  0  0  0
   -5.0598    0.8296    0.3858 O   0  0  0  0  0  0  0  0  0  0  0  0
   -5.3561   -2.5251    2.1991 C   0  0  0  0  0  0  0  0  0  0  0  0
   -7.0211   -3.5517    0.6368 C   0  0  0  0  0  0  0  0  0  0  0  0
   -2.2557   -2.8026   -0.1442 N   0  0  0  0  0  0  0  0  0  0  0  0
   -1.1521   -2.0892   -0.1093 C   0  0  0  0  0  0  0  0  0  0  0  0
    0.1776   -2.7857   -0.2431 C   0  0  0  0  0  0  0  0  0  0  0  0
   -2.4970    0.7570    1.5044 C   0  0  0  0  0  0  0  0  0  0  0  0
   -2.3945    0.0454    2.6866 C   0  0  0  0  0  0  0  0  0  0  0  0
   -2.4071    0.7072    3.8969 C   0  0  0  0  0  0  0  0  0  0  0  0
   -2.5342    2.0973    3.9275 C   0  0  0  0  0  0  0  0  0  0  0  0
   -2.6425    2.8087    2.7309 C   0  0  0  0  0  0  0  0  0  0  0  0
   -2.6233    2.1348    1.5275 C   0  0  0  0  0  0  0  0  0  0  0  0
   -2.5535    2.8123    5.2201 C   0  0  0  0  0  0  0  0  0  0  0  0
   -2.6639    4.0218    5.2436 O   0  0  0  0  0  0  0  0  0  0  0  0
   -2.4489    2.1231    6.3728 O   0  0  0  0  0  0  0  0  0  0  0  0
   -2.4752    2.8911    7.6048 C   0  0  0  0  0  0  0  0  0  0  0  0
   -0.0089    1.3356    0.0971 O   0  0  0  0  0  0  0  0  0  0  0  0
    3.6077   -1.4033   -0.7779 H   0  0  0  0  0  0  0  0  0  0  0  0
    4.5193   -0.1847    0.1452 H   0  0  0  0  0  0  0  0  0  0  0  0
    3.5798   -1.4305    1.0016 H   0  0  0  0  0  0  0  0  0  0  0  0
    2.4205    0.7736   -0.7635 H   0  0  0  0  0  0  0  0  0  0  0  0
    2.3926    0.7464    1.0161 H   0  0  0  0  0  0  0  0  0  0  0  0
    0.0806   -3.5758   -0.8482 H   0  0  0  0  0  0  0  0  0  0  0  0
   -4.4178   -4.0516   -0.7413 H   0  0  0  0  0  0  0  0  0  0  0  0
   -6.8767   -0.8411    0.7752 H   0  0  0  0  0  0  0  0  0  0  0  0
   -6.5136   -1.3256   -0.8213 H   0  0  0  0  0  0  0  0  0  0  0  0
   -6.1659   -2.1055    2.7961 H   0  0  0  0  0  0  0  0  0  0  0  0
   -5.1027   -3.5161    2.5760 H   0  0  0  0  0  0  0  0  0  0  0  0
   -4.4824   -1.8769    2.2652 H   0  0  0  0  0  0  0  0  0  0  0  0
   -7.3289   -3.6320   -0.4057 H   0  0  0  0  0  0  0  0  0  0  0  0
   -6.7642   -4.5405    1.0169 H   0  0  0  0  0  0  0  0  0  0  0  0
   -7.8389   -3.1371    1.2263 H   0  0  0  0  0  0  0  0  0  0  0  0
   -3.9513   -1.0155   -0.8226 H   0  0  0  0  0  0  0  0  0  0  0  0
    0.2698   -3.5449    0.5336 H   0  0  0  0  0  0  0  0  0  0  0  0
    0.7265   -2.3622   -1.0842 H   0  0  0  0  0  0  0  0  0  0  0  0
   -2.3004   -1.0302    2.6616 H   0  0  0  0  0  0  0  0  0  0  0  0
   -2.3231    0.1510    4.8188 H   0  0  0  0  0  0  0  0  0  0  0  0
   -2.7408    3.8841    2.7475 H   0  0  0  0  0  0  0  0  0  0  0  0
   -2.7067    2.6836    0.6012 H   0  0  0  0  0  0  0  0  0  0  0  0
   -1.6457    3.5982    7.6099 H   0  0  0  0  0  0  0  0  0  0  0  0
   -3.4170    3.4353    7.6736 H   0  0  0  0  0  0  0  0  0  0  0  0
   -2.3827    2.2161    8.4558 H   0  0  0  0  0  0  0  0  0  0  0  0
    0.8478    1.7836    0.1175 H   0  0  0  0  0  0  0  0  0  0  0  0
  1  2  1  0  0  0  0
  1 31  1  0  0  0  0
  1 32  1  0  0  0  0
  1 33  1  0  0  0  0
  2  3  1  0  0  0  0
  2 34  1  0  0  0  0
  2 35  1  0  0  0  0
  3  4  1  0  0  0  0
  4  5  2  0  0  0  0
  4 30  1  0  0  0  0
  5 18  1  0  0  0  0
  5  6  1  0  0  0  0
  6  7  1  0  0  0  0
  6  8  1  0  0  0  0
  6 20  1  0  0  0  0
  8 13  1  0  0  0  0
  8  9  1  0  0  0  0
  8 46  1  0  0  0  0
  9 17  1  0  0  0  0
  9 10  2  0  0  0  0
 10 11  1  0  0  0  0
 10 37  1  0  0  0  0
 11 12  1  0  0  0  0
 11 15  1  0  0  0  0
 11 16  1  0  0  0  0
 12 13  1  0  0  0  0
 12 38  1  0  0  0  0
 12 39  1  0  0  0  0
 13 14  2  0  0  0  0
 15 40  1  0  0  0  0
 15 41  1  0  0  0  0
 15 42  1  0  0  0  0
 16 43  1  0  0  0  0
 16 44  1  0  0  0  0
 16 45  1  0  0  0  0
 17 18  2  0  0  0  0
 18 19  1  0  0  0  0
 19 47  1  0  0  0  0
 19 48  1  0  0  0  0
 19 36  1  0  0  0  0
 20 25  2  0  0  0  0
 20 21  1  0  0  0  0
 21 22  2  0  0  0  0
 21 49  1  0  0  0  0
 22 23  1  0  0  0  0
 22 50  1  0  0  0  0
 23 24  2  0  0  0  0
 23 26  1  0  0  0  0
 24 25  1  0  0  0  0
 24 51  1  0  0  0  0
 25 52  1  0  0  0  0
 26 27  2  0  0  0  0
 26 28  1  0  0  0  0
 28 29  1  0  0  0  0
 29 53  1  0  0  0  0
 29 54  1  0  0  0  0
 29 55  1  0  0  0  0
 30 56  1  0  0  0  0
M  END
$$$$
ZINC04001155
  -OEChem-08230709463D

 69 72  0     1  0  0  0  0  0999 V2000
    0.6610   -0.4346   -1.2970 C   0  0  0  0  0  0  0  0  0  0  0  0
   -0.0136   -0.0019    0.0063 C   0  0  1  0  0  0  0  0  0  0  0  0
   -1.0160   -0.4274    0.0552 H   0  0  0  0  0  0  0  0  0  0  0  0
    0.8099   -0.4987    1.1962 C   0  0  0  0  0  0  0  0  0  0  0  0
    0.8338   -2.0285    1.1968 C   0  0  0  0  0  0  0  0  0  0  0  0
    1.6449   -2.5177    2.3689 C   0  0  0  0  0  0  0  0  0  0  0  0
    2.1519   -1.7242    3.1260 O   0  0  0  0  0  0  0  0  0  0  0  0
   -0.1048    1.5247    0.0509 C   0  0  1  0  0  0  0  0  0  0  0  0
    0.8943    1.9598    0.0746 H   0  0  0  0  0  0  0  0  0  0  0  0
   -0.8831    2.0468   -1.1738 C   0  0  0  0  0  0  0  0  0  0  0  0
   -2.1183    2.7934   -0.6199 C   0  0  0  0  0  0  0  0  0  0  0  0
   -1.6882    3.2122    0.8172 C   0  0  1  0  0  0  0  0  0  0  0  0
   -2.5366    3.4297    1.4661 H   0  0  0  0  0  0  0  0  0  0  0  0
   -0.9053    1.9709    1.2816 C   0  0  2  0  0  0  0  0  0  0  0  0
   -0.0252    2.2415    2.4805 C   0  0  0  0  0  0  0  0  0  0  0  0
    0.9016    3.4303    2.2286 C   0  0  0  0  0  0  0  0  0  0  0  0
    0.0390    4.6646    1.9392 C   0  0  2  0  0  0  0  0  0  0  0  0
   -0.6491    4.8247    2.7692 H   0  0  0  0  0  0  0  0  0  0  0  0
   -0.7598    4.4165    0.6645 C   0  0  1  0  0  0  0  0  0  0  0  0
   -1.3615    5.2970    0.4394 H   0  0  0  0  0  0  0  0  0  0  0  0
    0.2240    4.1681   -0.4844 C   0  0  0  0  0  0  0  0  0  0  0  0
    1.1089    5.3782   -0.6148 C   0  0  0  0  0  0  0  0  0  0  0  0
    1.4001    6.1366    0.4015 C   0  0  0  0  0  0  0  0  0  0  0  0
    0.9244    5.8876    1.8023 C   0  0  1  0  0  0  0  0  0  0  0  0
    0.2156    7.1395    2.3228 C   0  0  0  0  0  0  0  0  0  0  0  0
    1.1613    8.3372    2.1994 C   0  0  0  0  0  0  0  0  0  0  0  0
    1.5051    8.5823    0.7300 C   0  0  1  0  0  0  0  0  0  0  0  0
    2.1350    9.4680    0.6479 H   0  0  0  0  0  0  0  0  0  0  0  0
    2.2546    7.3714    0.1641 C   0  0  0  0  0  0  0  0  0  0  0  0
    0.2815    8.7884   -0.0242 O   0  0  0  0  0  0  0  0  0  0  0  0
    0.3564    9.5867   -1.1007 C   0  0  0  0  0  0  0  0  0  0  0  0
    1.4094   10.0963   -1.4029 O   0  0  0  0  0  0  0  0  0  0  0  0
   -0.8729    9.8472   -1.9325 C   0  0  0  0  0  0  0  0  0  0  0  0
    2.1571    5.6738    2.6830 C   0  0  0  0  0  0  0  0  0  0  0  0
   -1.9144    0.8783    1.6405 C   0  0  0  0  0  0  0  0  0  0  0  0
    0.7260   -1.5222   -1.3288 H   0  0  0  0  0  0  0  0  0  0  0  0
    0.0744   -0.0808   -2.1447 H   0  0  0  0  0  0  0  0  0  0  0  0
    1.6634   -0.0092   -1.3459 H   0  0  0  0  0  0  0  0  0  0  0  0
    1.8287   -0.1194    1.1166 H   0  0  0  0  0  0  0  0  0  0  0  0
    0.3608   -0.1419    2.1231 H   0  0  0  0  0  0  0  0  0  0  0  0
   -0.1850   -2.4077    1.2764 H   0  0  0  0  0  0  0  0  0  0  0  0
    1.2829   -2.3852    0.2699 H   0  0  0  0  0  0  0  0  0  0  0  0
   -0.2592    2.7302   -1.7498 H   0  0  0  0  0  0  0  0  0  0  0  0
   -1.1998    1.2120   -1.7992 H   0  0  0  0  0  0  0  0  0  0  0  0
   -2.9822    2.1298   -0.5825 H   0  0  0  0  0  0  0  0  0  0  0  0
   -2.3387    3.6729   -1.2248 H   0  0  0  0  0  0  0  0  0  0  0  0
   -0.6544    2.4557    3.3445 H   0  0  0  0  0  0  0  0  0  0  0  0
    0.5775    1.3573    2.6881 H   0  0  0  0  0  0  0  0  0  0  0  0
    1.5146    3.6105    3.1117 H   0  0  0  0  0  0  0  0  0  0  0  0
    1.5412    3.2210    1.3712 H   0  0  0  0  0  0  0  0  0  0  0  0
    0.8315    3.2901   -0.2650 H   0  0  0  0  0  0  0  0  0  0  0  0
   -0.3261    4.0121   -1.4124 H   0  0  0  0  0  0  0  0  0  0  0  0
    1.5155    5.6256   -1.5842 H   0  0  0  0  0  0  0  0  0  0  0  0
   -0.6826    7.3219    1.7328 H   0  0  0  0  0  0  0  0  0  0  0  0
   -0.0579    6.9956    3.3681 H   0  0  0  0  0  0  0  0  0  0  0  0
    0.6782    9.2236    2.6106 H   0  0  0  0  0  0  0  0  0  0  0  0
    2.0763    8.1346    2.7561 H   0  0  0  0  0  0  0  0  0  0  0  0
    3.2121    7.2602    0.6728 H   0  0  0  0  0  0  0  0  0  0  0  0
    2.4182    7.5062   -0.9051 H   0  0  0  0  0  0  0  0  0  0  0  0
   -1.7195    9.3070   -1.5089 H   0  0  0  0  0  0  0  0  0  0  0  0
   -1.0890   10.9156   -1.9367 H   0  0  0  0  0  0  0  0  0  0  0  0
   -0.6994    9.5077   -2.9536 H   0  0  0  0  0  0  0  0  0  0  0  0
    2.6899    4.7824    2.3520 H   0  0  0  0  0  0  0  0  0  0  0  0
    2.8142    6.5399    2.6047 H   0  0  0  0  0  0  0  0  0  0  0  0
    1.8453    5.5468    3.7197 H   0  0  0  0  0  0  0  0  0  0  0  0
   -1.3821   -0.0124    1.9743 H   0  0  0  0  0  0  0  0  0  0  0  0
   -2.5654    1.2333    2.4394 H   0  0  0  0  0  0  0  0  0  0  0  0
   -2.5145    0.6357    0.7635 H   0  0  0  0  0  0  0  0  0  0  0  0
    1.8042   -3.8350    2.5717 O   0  5  0  0  0  0  0  0  0  0  0  0
  1  2  1  0  0  0  0
  1 36  1  0  0  0  0
  1 37  1  0  0  0  0
  1 38  1  0  0  0  0
  2  3  1  0  0  0  0
  2  4  1  0  0  0  0
  2  8  1  0  0  0  0
  4  5  1  0  0  0  0
  4 39  1  0  0  0  0
  4 40  1  0  0  0  0
  5  6  1  0  0  0  0
  5 41  1  0  0  0  0
  5 42  1  0  0  0  0
  6  7  2  0  0  0  0
  6 69  1  0  0  0  0
  8  9  1  0  0  0  0
  8 14  1  0  0  0  0
  8 10  1  0  0  0  0
 10 11  1  0  0  0  0
 10 43  1  0  0  0  0
 10 44  1  0  0  0  0
 11 12  1  0  0  0  0
 11 45  1  0  0  0  0
 11 46  1  0  0  0  0
 12 13  1  0  0  0  0
 12 19  1  0  0  0  0
 12 14  1  0  0  0  0
 14 15  1  0  0  0  0
 14 35  1  0  0  0  0
 15 16  1  0  0  0  0
 15 47  1  0  0  0  0
 15 48  1  0  0  0  0
 16 17  1  0  0  0  0
 16 49  1  0  0  0  0
 16 50  1  0  0  0  0
 17 18  1  0  0  0  0
 17 24  1  0  0  0  0
 17 19  1  0  0  0  0
 19 20  1  0  0  0  0
 19 21  1  0  0  0  0
 21 22  1  0  0  0  0
 21 51  1  0  0  0  0
 21 52  1  0  0  0  0
 22 23  2  0  0  0  0
 22 53  1  0  0  0  0
 23 29  1  0  0  0  0
 23 24  1  0  0  0  0
 24 25  1  0  0  0  0
 24 34  1  0  0  0  0
 25 26  1  0  0  0  0
 25 54  1  0  0  0  0
 25 55  1  0  0  0  0
 26 27  1  0  0  0  0
 26 56  1  0  0  0  0
 26 57  1  0  0  0  0
 27 28  1  0  0  0  0
 27 29  1  0  0  0  0
 27 30  1  0  0  0  0
 29 58  1  0  0  0  0
 29 59  1  0  0  0  0
 30 31  1  0  0  0  0
 31 32  2  0  0  0  0
 31 33  1  0  0  0  0
 33 60  1  0  0  0  0
 33 61  1  0  0  0  0
 33 62  1  0  0  0  0
 34 63  1  0  0  0  0
 34 64  1  0  0  0  0
 34 65  1  0  0  0  0
 35 66  1  0  0  0  0
 35 67  1  0  0  0  0
 35 68  1  0  0  0  0
M  CHG  1  69  -1
M  END
$$$$
ZINC04001398
  -OEChem-08230709463D

 58 60  0     1  0  0  0  0  0999 V2000
   -3.5051    6.3481   -2.3215 C   0  0  0  0  0  0  0  0  0  0  0  0
   -4.1300    5.2294   -1.4853 C   0  0  0  0  0  0  0  0  0  0  0  0
   -4.8833    5.8456   -0.3133 C   0  0  0  0  0  0  0  0  0  0  0  0
   -3.8420    6.4341    0.6488 C   0  0  0  0  0  0  0  0  0  0  0  0
   -3.0701    5.2705    1.2581 C   0  0  0  0  0  0  0  0  0  0  0  0
   -2.5510    4.3288    0.1910 C   0  0  0  0  0  0  0  0  0  0  0  0
   -3.0358    4.2944   -1.0131 C   0  0  0  0  0  0  0  0  0  0  0  0
   -2.5649    3.3052   -2.0595 C   0  0  0  0  0  0  0  0  0  0  0  0
   -1.2029    2.7223   -1.7043 C   0  0  0  0  0  0  0  0  0  0  0  0
   -1.2815    2.2087   -0.2599 C   0  0  2  0  0  0  0  0  0  0  0  0
   -2.1443    1.5525   -0.1460 H   0  0  0  0  0  0  0  0  0  0  0  0
   -1.4297    3.4204    0.6515 C   0  0  0  0  0  0  0  0  0  0  0  0
   -0.0555    1.4807    0.0763 N   0  0  0  0  0  0  0  0  0  0  0  0
    1.1704    2.1513    0.1031 C   0  0  0  0  0  0  0  0  0  0  0  0
    2.1438    1.8608   -0.8445 C   0  0  0  0  0  0  0  0  0  0  0  0
    3.3522    2.5287   -0.8179 C   0  0  0  0  0  0  0  0  0  0  0  0
    3.5978    3.4784    0.1569 C   0  0  0  0  0  0  0  0  0  0  0  0
    2.6330    3.7664    1.1049 C   0  0  0  0  0  0  0  0  0  0  0  0
    1.4204    3.1059    1.0810 C   0  0  0  0  0  0  0  0  0  0  0  0
   -0.1105    0.1654    0.3651 C   0  0  0  0  0  0  0  0  0  0  0  0
   -1.1587   -0.4390    0.2492 O   0  0  0  0  0  0  0  0  0  0  0  0
    1.1022   -0.5412    0.8223 C   0  0  0  0  0  0  0  0  0  0  0  0
    1.0267   -1.8268    1.2036 C   0  0  0  0  0  0  0  0  0  0  0  0
    2.2384   -2.5328    1.6604 C   0  0  0  0  0  0  0  0  0  0  0  0
    3.3044   -1.9516    1.6916 O   0  0  0  0  0  0  0  0  0  0  0  0
   -0.1296    3.8073   -1.8121 C   0  0  0  0  0  0  0  0  0  0  0  0
   -0.8706    1.5658   -2.6493 C   0  0  0  0  0  0  0  0  0  0  0  0
   -5.1156    4.4466   -2.3551 C   0  0  0  0  0  0  0  0  0  0  0  0
   -2.9946    5.9163   -3.1823 H   0  0  0  0  0  0  0  0  0  0  0  0
   -4.2872    7.0252   -2.6648 H   0  0  0  0  0  0  0  0  0  0  0  0
   -2.7884    6.8995   -1.7129 H   0  0  0  0  0  0  0  0  0  0  0  0
   -5.5435    6.6353   -0.6720 H   0  0  0  0  0  0  0  0  0  0  0  0
   -5.4669    5.0785    0.1957 H   0  0  0  0  0  0  0  0  0  0  0  0
   -3.1596    7.0851    0.1024 H   0  0  0  0  0  0  0  0  0  0  0  0
   -4.3426    6.9985    1.4357 H   0  0  0  0  0  0  0  0  0  0  0  0
   -3.7282    4.7195    1.9300 H   0  0  0  0  0  0  0  0  0  0  0  0
   -2.2276    5.6618    1.8283 H   0  0  0  0  0  0  0  0  0  0  0  0
   -3.2901    2.4950   -2.1356 H   0  0  0  0  0  0  0  0  0  0  0  0
   -2.4956    3.8112   -3.0224 H   0  0  0  0  0  0  0  0  0  0  0  0
   -1.6409    3.0798    1.6652 H   0  0  0  0  0  0  0  0  0  0  0  0
   -0.4950    3.9812    0.6531 H   0  0  0  0  0  0  0  0  0  0  0  0
    1.9542    1.1163   -1.6035 H   0  0  0  0  0  0  0  0  0  0  0  0
    4.1078    2.3063   -1.5568 H   0  0  0  0  0  0  0  0  0  0  0  0
    4.5451    3.9967    0.1776 H   0  0  0  0  0  0  0  0  0  0  0  0
    2.8279    4.5089    1.8646 H   0  0  0  0  0  0  0  0  0  0  0  0
    0.6673    3.3315    1.8214 H   0  0  0  0  0  0  0  0  0  0  0  0
    2.0501   -0.0245    0.8500 H   0  0  0  0  0  0  0  0  0  0  0  0
    0.0788   -2.3435    1.1758 H   0  0  0  0  0  0  0  0  0  0  0  0
    0.8534    3.3628   -1.6562 H   0  0  0  0  0  0  0  0  0  0  0  0
   -0.1701    4.2614   -2.8022 H   0  0  0  0  0  0  0  0  0  0  0  0
   -0.3074    4.5707   -1.0547 H   0  0  0  0  0  0  0  0  0  0  0  0
   -1.6478    0.8048   -2.5796 H   0  0  0  0  0  0  0  0  0  0  0  0
   -0.8163    1.9370   -3.6727 H   0  0  0  0  0  0  0  0  0  0  0  0
    0.0891    1.1317   -2.3688 H   0  0  0  0  0  0  0  0  0  0  0  0
   -5.5520    3.6366   -1.7706 H   0  0  0  0  0  0  0  0  0  0  0  0
   -5.9063    5.1136   -2.6986 H   0  0  0  0  0  0  0  0  0  0  0  0
   -4.5907    4.0318   -3.2156 H   0  0  0  0  0  0  0  0  0  0  0  0
    2.1627   -3.8227    2.0430 O   0  5  0  0  0  0  0  0  0  0  0  0
  1  2  1  0  0  0  0
  1 29  1  0  0  0  0
  1 30  1  0  0  0  0
  1 31  1  0  0  0  0
  2  7  1  0  0  0  0
  2  3  1  0  0  0  0
  2 28  1  0  0  0  0
  3  4  1  0  0  0  0
  3 32  1  0  0  0  0
  3 33  1  0  0  0  0
  4  5  1  0  0  0  0
  4 34  1  0  0  0  0
  4 35  1  0  0  0  0
  5  6  1  0  0  0  0
  5 36  1  0  0  0  0
  5 37  1  0  0  0  0
  6 12  1  0  0  0  0
  6  7  2  0  0  0  0
  7  8  1  0  0  0  0
  8  9  1  0  0  0  0
  8 38  1  0  0  0  0
  8 39  1  0  0  0  0
  9 10  1  0  0  0  0
  9 26  1  0  0  0  0
  9 27  1  0  0  0  0
 10 11  1  0  0  0  0
 10 12  1  0  0  0  0
 10 13  1  0  0  0  0
 12 40  1  0  0  0  0
 12 41  1  0  0  0  0
 13 14  1  0  0  0  0
 13 20  1  0  0  0  0
 14 19  2  0  0  0  0
 14 15  1  0  0  0  0
 15 16  2  0  0  0  0
 15 42  1  0  0  0  0
 16 17  1  0  0  0  0
 16 43  1  0  0  0  0
 17 18  2  0  0  0  0
 17 44  1  0  0  0  0
 18 19  1  0  0  0  0
 18 45  1  0  0  0  0
 19 46  1  0  0  0  0
 20 21  2  0  0  0  0
 20 22  1  0  0  0  0
 22 23  2  0  0  0  0
 22 47  1  0  0  0  0
 23 24  1  0  0  0  0
 23 48  1  0  0  0  0
 24 25  2  0  0  0  0
 24 58  1  0  0  0  0
 26 49  1  0  0  0  0
 26 50  1  0  0  0  0
 26 51  1  0  0  0  0
 27 52  1  0  0  0  0
 27 53  1  0  0  0  0
 27 54  1  0  0  0  0
 28 55  1  0  0  0  0
 28 56  1  0  0  0  0
 28 57  1  0  0  0  0
M  CHG  1  58  -1
M  END
$$$$
ZINC04027592
  -OEChem-08230709463D

 64 67  0     1  0  0  0  0  0999 V2000
    6.0658   -3.9243    5.3498 C   0  0  0  0  0  0  0  0  0  0  0  0
    4.9843   -3.4430    4.3805 C   0  0  0  0  0  0  0  0  0  0  0  0
    3.9039   -2.7265    5.1489 C   0  0  0  0  0  0  0  0  0  0  0  0
    3.9901   -2.6125    6.3487 O   0  0  0  0  0  0  0  0  0  0  0  0
    2.8458   -2.2149    4.5005 O   0  0  0  0  0  0  0  0  0  0  0  0
    1.8468   -1.5399    5.3023 C   0  0  2  0  0  0  0  0  0  0  0  0
    2.2813   -1.1198    6.2025 H   0  0  0  0  0  0  0  0  0  0  0  0
    0.6879   -2.5081    5.6472 C   0  0  0  0  0  0  0  0  0  0  0  0
   -0.4820   -2.1538    4.6898 C   0  0  0  0  0  0  0  0  0  0  0  0
    0.1834   -1.2611    3.6311 C   0  0  2  0  0  0  0  0  0  0  0  0
    0.7698   -1.9205    2.9572 H   0  0  0  0  0  0  0  0  0  0  0  0
    1.1645   -0.4267    4.4787 C   0  0  2  0  0  0  0  0  0  0  0  0
    2.1026    0.3673    3.6044 C   0  0  0  0  0  0  0  0  0  0  0  0
    1.4046    0.7948    2.3060 C   0  0  0  0  0  0  0  0  0  0  0  0
   -0.0973    0.9495    2.5127 C   0  0  2  0  0  0  0  0  0  0  0  0
   -0.2930    1.6284    3.3420 H   0  0  0  0  0  0  0  0  0  0  0  0
   -0.7289   -0.4147    2.7944 C   0  0  2  0  0  0  0  0  0  0  0  0
   -0.8359   -0.9179    1.8118 H   0  0  0  0  0  0  0  0  0  0  0  0
   -2.1325   -0.2628    3.3572 C   0  0  0  0  0  0  0  0  0  0  0  0
   -2.8813    0.8402    2.6041 C   0  0  0  0  0  0  0  0  0  0  0  0
   -2.2083    1.0889    1.2743 C   0  0  0  0  0  0  0  0  0  0  0  0
   -2.8791    0.9075    0.1473 C   0  0  0  0  0  0  0  0  0  0  0  0
   -2.2509    1.1353   -1.1586 C   0  0  0  0  0  0  0  0  0  0  0  0
   -2.9463    0.9958   -2.2440 N   0  0  0  0  0  0  0  0  0  0  0  0
   -4.3097    0.6209   -2.1681 O   0  0  0  0  0  0  0  0  0  0  0  0
   -4.9521    0.5044   -3.4392 C   0  0  0  0  0  0  0  0  0  0  0  0
   -6.3910    0.1033   -3.2400 C   0  0  0  0  0  0  0  0  0  0  0  0
   -6.8221   -0.0655   -2.1239 O   0  0  0  0  0  0  0  0  0  0  0  0
   -0.8000    1.5344   -1.2416 C   0  0  0  0  0  0  0  0  0  0  0  0
   -0.0640    1.0476    0.0082 C   0  0  0  0  0  0  0  0  0  0  0  0
   -0.7679    1.5437    1.2659 C   0  0  2  0  0  0  0  0  0  0  0  0
   -0.7108    3.0703    1.3429 C   0  0  0  0  0  0  0  0  0  0  0  0
    0.4435    0.4884    5.4719 C   0  0  0  0  0  0  0  0  0  0  0  0
    6.4961   -3.0677    5.8686 H   0  0  0  0  0  0  0  0  0  0  0  0
    5.6245   -4.6056    6.0773 H   0  0  0  0  0  0  0  0  0  0  0  0
    6.8472   -4.4426    4.7941 H   0  0  0  0  0  0  0  0  0  0  0  0
    4.5540   -4.2996    3.8617 H   0  0  0  0  0  0  0  0  0  0  0  0
    5.4255   -2.7617    3.6531 H   0  0  0  0  0  0  0  0  0  0  0  0
    0.3790   -2.3673    6.6826 H   0  0  0  0  0  0  0  0  0  0  0  0
    1.0027   -3.5383    5.4875 H   0  0  0  0  0  0  0  0  0  0  0  0
   -1.2729   -1.6281    5.2176 H   0  0  0  0  0  0  0  0  0  0  0  0
   -0.8767   -3.0607    4.2251 H   0  0  0  0  0  0  0  0  0  0  0  0
    2.9878   -0.2289    3.3581 H   0  0  0  0  0  0  0  0  0  0  0  0
    2.4399    1.2616    4.1442 H   0  0  0  0  0  0  0  0  0  0  0  0
    1.5906    0.0394    1.5370 H   0  0  0  0  0  0  0  0  0  0  0  0
    1.8294    1.7432    1.9679 H   0  0  0  0  0  0  0  0  0  0  0  0
   -2.6739   -1.2002    3.2355 H   0  0  0  0  0  0  0  0  0  0  0  0
   -2.0889   -0.0029    4.4103 H   0  0  0  0  0  0  0  0  0  0  0  0
   -2.8715    1.7522    3.1977 H   0  0  0  0  0  0  0  0  0  0  0  0
   -3.9103    0.5223    2.4359 H   0  0  0  0  0  0  0  0  0  0  0  0
   -3.9092    0.5842    0.1909 H   0  0  0  0  0  0  0  0  0  0  0  0
   -4.9105    1.4629   -3.9566 H   0  0  0  0  0  0  0  0  0  0  0  0
   -4.4431   -0.2528   -4.0356 H   0  0  0  0  0  0  0  0  0  0  0  0
   -0.7151    2.6146   -1.3386 H   0  0  0  0  0  0  0  0  0  0  0  0
   -0.3520    1.0680   -2.1253 H   0  0  0  0  0  0  0  0  0  0  0  0
   -0.0392   -0.0445    0.0093 H   0  0  0  0  0  0  0  0  0  0  0  0
    0.9621    1.4226   -0.0107 H   0  0  0  0  0  0  0  0  0  0  0  0
   -1.2033    3.4969    0.4692 H   0  0  0  0  0  0  0  0  0  0  0  0
   -1.2180    3.4078    2.2468 H   0  0  0  0  0  0  0  0  0  0  0  0
    0.3297    3.3942    1.3678 H   0  0  0  0  0  0  0  0  0  0  0  0
   -0.0482    1.2965    4.9303 H   0  0  0  0  0  0  0  0  0  0  0  0
   -0.3017   -0.0870    6.0211 H   0  0  0  0  0  0  0  0  0  0  0  0
    1.1670    0.9072    6.1713 H   0  0  0  0  0  0  0  0  0  0  0  0
   -7.1937   -0.0665   -4.3023 O   0  5  0  0  0  0  0  0  0  0  0  0
  1  2  1  0  0  0  0
  1 34  1  0  0  0  0
  1 35  1  0  0  0  0
  1 36  1  0  0  0  0
  2  3  1  0  0  0  0
  2 37  1  0  0  0  0
  2 38  1  0  0  0  0
  3  4  2  0  0  0  0
  3  5  1  0  0  0  0
  5  6  1  0  0  0  0
  6  7  1  0  0  0  0
  6 12  1  0  0  0  0
  6  8  1  0  0  0  0
  8  9  1  0  0  0  0
  8 39  1  0  0  0  0
  8 40  1  0  0  0  0
  9 10  1  0  0  0  0
  9 41  1  0  0  0  0
  9 42  1  0  0  0  0
 10 11  1  0  0  0  0
 10 17  1  0  0  0  0
 10 12  1  0  0  0  0
 12 13  1  0  0  0  0
 12 33  1  0  0  0  0
 13 14  1  0  0  0  0
 13 43  1  0  0  0  0
 13 44  1  0  0  0  0
 14 15  1  0  0  0  0
 14 45  1  0  0  0  0
 14 46  1  0  0  0  0
 15 16  1  0  0  0  0
 15 31  1  0  0  0  0
 15 17  1  0  0  0  0
 17 18  1  0  0  0  0
 17 19  1  0  0  0  0
 19 20  1  0  0  0  0
 19 47  1  0  0  0  0
 19 48  1  0  0  0  0
 20 21  1  0  0  0  0
 20 49  1  0  0  0  0
 20 50  1  0  0  0  0
 21 31  1  0  0  0  0
 21 22  2  0  0  0  0
 22 23  1  0  0  0  0
 22 51  1  0  0  0  0
 23 24  2  0  0  0  0
 23 29  1  0  0  0  0
 24 25  1  0  0  0  0
 25 26  1  0  0  0  0
 26 27  1  0  0  0  0
 26 52  1  0  0  0  0
 26 53  1  0  0  0  0
 27 28  2  0  0  0  0
 27 64  1  0  0  0  0
 29 30  1  0  0  0  0
 29 54  1  0  0  0  0
 29 55  1  0  0  0  0
 30 31  1  0  0  0  0
 30 56  1  0  0  0  0
 30 57  1  0  0  0  0
 31 32  1  0  0  0  0
 32 58  1  0  0  0  0
 32 59  1  0  0  0  0
 32 60  1  0  0  0  0
 33 61  1  0  0  0  0
 33 62  1  0  0  0  0
 33 63  1  0  0  0  0
M  CHG  1  64  -1
M  END
$$$$
ZINC04041441
  -OEChem-08230709463D

 50 52  0     1  0  0  0  0  0999 V2000
   -0.7345    1.5820    1.2625 C   0  0  0  0  0  0  0  0  0  0  0  0
   -0.0127    1.0858    0.0080 C   0  0  1  0  0  0  0  0  0  0  0  0
    0.0021   -0.0041    0.0020 H   0  0  0  0  0  0  0  0  0  0  0  0
   -0.7378    1.5962   -1.2406 C   0  0  0  0  0  0  0  0  0  0  0  0
   -0.1767    0.9075   -2.4859 C   0  0  0  0  0  0  0  0  0  0  0  0
    1.3394    1.0609   -2.4899 C   0  0  0  0  0  0  0  0  0  0  0  0
    2.0092    1.3793   -1.3615 C   0  0  0  0  0  0  0  0  0  0  0  0
    3.7103    1.4458   -1.8476 S   0  0  0  0  0  0  0  0  0  0  0  0
    3.5372    1.0559   -3.5269 C   0  0  0  0  0  0  0  0  0  0  0  0
    2.1665    0.8835   -3.6719 C   0  0  0  0  0  0  0  0  0  0  0  0
    1.5772    0.5357   -4.9663 C   0  0  0  0  0  0  0  0  0  0  0  0
    1.4375   -0.6321   -5.2769 O   0  0  0  0  0  0  0  0  0  0  0  0
    4.5255    0.9428   -4.4905 N   0  0  0  0  0  0  0  0  0  0  0  0
    5.8158    1.1479   -4.1596 C   0  0  0  0  0  0  0  0  0  0  0  0
    6.1122    1.4322   -3.0152 O   0  0  0  0  0  0  0  0  0  0  0  0
    6.8688    1.0274   -5.1863 C   0  0  0  0  0  0  0  0  0  0  0  0
    6.5301    0.6951   -6.5005 C   0  0  0  0  0  0  0  0  0  0  0  0
    7.5180    0.5880   -7.4614 C   0  0  0  0  0  0  0  0  0  0  0  0
    8.8507    0.7997   -7.1182 C   0  0  0  0  0  0  0  0  0  0  0  0
    9.1914    1.1258   -5.8082 C   0  0  0  0  0  0  0  0  0  0  0  0
    8.2069    1.2398   -4.8446 C   0  0  0  0  0  0  0  0  0  0  0  0
   10.4940    1.3329   -5.4764 O   0  0  0  0  0  0  0  0  0  0  0  0
   10.7718    1.6646   -4.1145 C   0  0  0  0  0  0  0  0  0  0  0  0
    9.8205    0.6883   -8.0636 O   0  0  0  0  0  0  0  0  0  0  0  0
   10.4095   -0.6017   -8.2398 C   0  0  0  0  0  0  0  0  0  0  0  0
    7.1884    0.2705   -8.7422 O   0  0  0  0  0  0  0  0  0  0  0  0
    5.8024    0.0670   -9.0240 C   0  0  0  0  0  0  0  0  0  0  0  0
    1.4269    1.6202   -0.0029 C   0  0  0  0  0  0  0  0  0  0  0  0
   -0.7482    2.6719    1.2667 H   0  0  0  0  0  0  0  0  0  0  0  0
   -1.7574    1.2057    1.2659 H   0  0  0  0  0  0  0  0  0  0  0  0
   -0.2119    1.2218    2.1487 H   0  0  0  0  0  0  0  0  0  0  0  0
   -1.8025    1.3789   -1.1553 H   0  0  0  0  0  0  0  0  0  0  0  0
   -0.5952    2.6734   -1.3272 H   0  0  0  0  0  0  0  0  0  0  0  0
   -0.5934    1.3721   -3.3795 H   0  0  0  0  0  0  0  0  0  0  0  0
   -0.4368   -0.1509   -2.4667 H   0  0  0  0  0  0  0  0  0  0  0  0
    4.2890    0.7160   -5.4034 H   0  0  0  0  0  0  0  0  0  0  0  0
    5.4971    0.5260   -6.7662 H   0  0  0  0  0  0  0  0  0  0  0  0
    8.4717    1.4931   -3.8287 H   0  0  0  0  0  0  0  0  0  0  0  0
   11.8453    1.8029   -3.9859 H   0  0  0  0  0  0  0  0  0  0  0  0
   10.2526    2.5863   -3.8518 H   0  0  0  0  0  0  0  0  0  0  0  0
   10.4293    0.8575   -3.4668 H   0  0  0  0  0  0  0  0  0  0  0  0
   10.8728   -0.9202   -7.3060 H   0  0  0  0  0  0  0  0  0  0  0  0
    9.6385   -1.3172   -8.5255 H   0  0  0  0  0  0  0  0  0  0  0  0
   11.1666   -0.5515   -9.0225 H   0  0  0  0  0  0  0  0  0  0  0  0
    5.2478    0.9772   -8.7959 H   0  0  0  0  0  0  0  0  0  0  0  0
    5.6784   -0.1795  -10.0785 H   0  0  0  0  0  0  0  0  0  0  0  0
    5.4237   -0.7520   -8.4125 H   0  0  0  0  0  0  0  0  0  0  0  0
    1.4234    2.6890    0.2110 H   0  0  0  0  0  0  0  0  0  0  0  0
    2.0183    1.0973    0.7487 H   0  0  0  0  0  0  0  0  0  0  0  0
    1.1893    1.5102   -5.8144 O   0  5  0  0  0  0  0  0  0  0  0  0
  1  2  1  0  0  0  0
  1 29  1  0  0  0  0
  1 30  1  0  0  0  0
  1 31  1  0  0  0  0
  2  3  1  0  0  0  0
  2 28  1  0  0  0  0
  2  4  1  0  0  0  0
  4  5  1  0  0  0  0
  4 32  1  0  0  0  0
  4 33  1  0  0  0  0
  5  6  1  0  0  0  0
  5 34  1  0  0  0  0
  5 35  1  0  0  0  0
  6 10  1  0  0  0  0
  6  7  2  0  0  0  0
  7  8  1  0  0  0  0
  7 28  1  0  0  0  0
  8  9  1  0  0  0  0
  9 10  2  0  0  0  0
  9 13  1  0  0  0  0
 10 11  1  0  0  0  0
 11 12  2  0  0  0  0
 11 50  1  0  0  0  0
 13 14  1  0  0  0  0
 13 36  1  0  0  0  0
 14 15  2  0  0  0  0
 14 16  1  0  0  0  0
 16 21  2  0  0  0  0
 16 17  1  0  0  0  0
 17 18  2  0  0  0  0
 17 37  1  0  0  0  0
 18 19  1  0  0  0  0
 18 26  1  0  0  0  0
 19 20  2  0  0  0  0
 19 24  1  0  0  0  0
 20 21  1  0  0  0  0
 20 22  1  0  0  0  0
 21 38  1  0  0  0  0
 22 23  1  0  0  0  0
 23 39  1  0  0  0  0
 23 40  1  0  0  0  0
 23 41  1  0  0  0  0
 24 25  1  0  0  0  0
 25 42  1  0  0  0  0
 25 43  1  0  0  0  0
 25 44  1  0  0  0  0
 26 27  1  0  0  0  0
 27 45  1  0  0  0  0
 27 46  1  0  0  0  0
 27 47  1  0  0  0  0
 28 48  1  0  0  0  0
 28 49  1  0  0  0  0
M  CHG  1  50  -1
M  END
$$$$
ZINC04065288
  -OEChem-08230709463D

 47 49  0     1  0  0  0  0  0999 V2000
    4.1630    1.9911   -3.8802 C   0  0  0  0  0  0  0  0  0  0  0  0
    2.9384    1.2304   -3.3676 C   0  0  0  0  0  0  0  0  0  0  0  0
    1.8094    2.1385   -3.2725 O   0  0  0  0  0  0  0  0  0  0  0  0
    0.6434    1.6219   -2.8331 C   0  0  0  0  0  0  0  0  0  0  0  0
    0.5730    0.4441   -2.5377 O   0  0  0  0  0  0  0  0  0  0  0  0
   -0.5376    2.4791   -2.7119 C   0  0  0  0  0  0  0  0  0  0  0  0
   -0.8267    3.1946   -1.4804 C   0  0  0  0  0  0  0  0  0  0  0  0
   -1.9460    3.9501   -1.5032 C   0  0  0  0  0  0  0  0  0  0  0  0
   -2.6134    3.7225   -3.1271 S   0  0  0  0  0  0  0  0  0  0  0  0
   -1.4236    2.6393   -3.7697 C   0  0  0  0  0  0  0  0  0  0  0  0
   -1.3689    2.0717   -5.0315 N   0  0  0  0  0  0  0  0  0  0  0  0
   -2.3290    2.3468   -5.9364 C   0  0  0  0  0  0  0  0  0  0  0  0
   -3.2429    3.0933   -5.6449 O   0  0  0  0  0  0  0  0  0  0  0  0
   -2.2706    1.7406   -7.2840 C   0  0  0  0  0  0  0  0  0  0  0  0
   -1.1309    1.8889   -8.0700 C   0  0  0  0  0  0  0  0  0  0  0  0
   -1.0809    1.3206   -9.3288 C   0  0  0  0  0  0  0  0  0  0  0  0
   -2.1583    0.6019   -9.8163 C   0  0  0  0  0  0  0  0  0  0  0  0
   -3.2977    0.4437   -9.0504 C   0  0  0  0  0  0  0  0  0  0  0  0
   -3.3645    1.0051   -7.7776 C   0  0  0  0  0  0  0  0  0  0  0  0
   -4.5788    0.8339   -6.9521 C   0  0  0  0  0  0  0  0  0  0  0  0
   -4.5923    1.2272   -5.8031 O   0  0  0  0  0  0  0  0  0  0  0  0
   -2.4903    4.7919   -0.3905 C   0  0  0  0  0  0  0  0  0  0  0  0
   -1.3889    4.9697    0.6647 C   0  0  2  0  0  0  0  0  0  0  0  0
   -0.6218    5.6430    0.2822 H   0  0  0  0  0  0  0  0  0  0  0  0
   -0.7673    3.6037    0.9692 C   0  0  0  0  0  0  0  0  0  0  0  0
    0.0463    3.1227   -0.2336 C   0  0  0  0  0  0  0  0  0  0  0  0
   -1.9930    5.5541    1.9431 C   0  0  0  0  0  0  0  0  0  0  0  0
    4.4039    2.7993   -3.1896 H   0  0  0  0  0  0  0  0  0  0  0  0
    5.0105    1.3094   -3.9516 H   0  0  0  0  0  0  0  0  0  0  0  0
    3.9469    2.4066   -4.8644 H   0  0  0  0  0  0  0  0  0  0  0  0
    3.1545    0.8150   -2.3833 H   0  0  0  0  0  0  0  0  0  0  0  0
    2.6975    0.4222   -4.0582 H   0  0  0  0  0  0  0  0  0  0  0  0
   -0.6395    1.4760   -5.2641 H   0  0  0  0  0  0  0  0  0  0  0  0
   -0.2862    2.4484   -7.6961 H   0  0  0  0  0  0  0  0  0  0  0  0
   -0.1952    1.4377   -9.9357 H   0  0  0  0  0  0  0  0  0  0  0  0
   -2.1083    0.1617  -10.8013 H   0  0  0  0  0  0  0  0  0  0  0  0
   -4.1345   -0.1191   -9.4370 H   0  0  0  0  0  0  0  0  0  0  0  0
   -2.7877    5.7660   -0.7787 H   0  0  0  0  0  0  0  0  0  0  0  0
   -3.3519    4.2964    0.0571 H   0  0  0  0  0  0  0  0  0  0  0  0
   -1.5604    2.8864    1.1800 H   0  0  0  0  0  0  0  0  0  0  0  0
   -0.1146    3.6858    1.8383 H   0  0  0  0  0  0  0  0  0  0  0  0
    0.3663    2.0936   -0.0704 H   0  0  0  0  0  0  0  0  0  0  0  0
    0.9204    3.7611   -0.3623 H   0  0  0  0  0  0  0  0  0  0  0  0
   -2.7563    4.8771    2.3267 H   0  0  0  0  0  0  0  0  0  0  0  0
   -1.2098    5.6796    2.6907 H   0  0  0  0  0  0  0  0  0  0  0  0
   -2.4433    6.5220    1.7228 H   0  0  0  0  0  0  0  0  0  0  0  0
   -5.6702    0.2418   -7.4743 O   0  5  0  0  0  0  0  0  0  0  0  0
  1  2  1  0  0  0  0
  1 28  1  0  0  0  0
  1 29  1  0  0  0  0
  1 30  1  0  0  0  0
  2  3  1  0  0  0  0
  2 31  1  0  0  0  0
  2 32  1  0  0  0  0
  3  4  1  0  0  0  0
  4  5  2  0  0  0  0
  4  6  1  0  0  0  0
  6 10  2  0  0  0  0
  6  7  1  0  0  0  0
  7 26  1  0  0  0  0
  7  8  2  0  0  0  0
  8  9  1  0  0  0  0
  8 22  1  0  0  0  0
  9 10  1  0  0  0  0
 10 11  1  0  0  0  0
 11 12  1  0  0  0  0
 11 33  1  0  0  0  0
 12 13  2  0  0  0  0
 12 14  1  0  0  0  0
 14 19  2  0  0  0  0
 14 15  1  0  0  0  0
 15 16  2  0  0  0  0
 15 34  1  0  0  0  0
 16 17  1  0  0  0  0
 16 35  1  0  0  0  0
 17 18  2  0  0  0  0
 17 36  1  0  0  0  0
 18 19  1  0  0  0  0
 18 37  1  0  0  0  0
 19 20  1  0  0  0  0
 20 21  2  0  0  0  0
 20 47  1  0  0  0  0
 22 23  1  0  0  0  0
 22 38  1  0  0  0  0
 22 39  1  0  0  0  0
 23 24  1  0  0  0  0
 23 25  1  0  0  0  0
 23 27  1  0  0  0  0
 25 26  1  0  0  0  0
 25 40  1  0  0  0  0
 25 41  1  0  0  0  0
 26 42  1  0  0  0  0
 26 43  1  0  0  0  0
 27 44  1  0  0  0  0
 27 45  1  0  0  0  0
 27 46  1  0  0  0  0
M  CHG  1  47  -1
M  END
$$$$
ZINC04076929
  -OEChem-08230709463D

 51 53  0     0  0  0  0  0  0999 V2000
    3.9323   -1.6595   -5.0257 C   0  0  0  0  0  0  0  0  0  0  0  0
    4.3041   -1.8369   -3.5522 C   0  0  0  0  0  0  0  0  0  0  0  0
    3.1624   -2.2942   -2.8246 O   0  0  0  0  0  0  0  0  0  0  0  0
    3.3225   -2.5020   -1.5012 C   0  0  0  0  0  0  0  0  0  0  0  0
    4.4031   -2.3000   -0.9800 O   0  0  0  0  0  0  0  0  0  0  0  0
    2.1973   -2.9700   -0.6933 C   0  0  0  0  0  0  0  0  0  0  0  0
    1.2473   -2.1626   -0.0210 C   0  0  0  0  0  0  0  0  0  0  0  0
    0.3974   -2.9507    0.5999 N   0  0  0  0  0  0  0  0  0  0  0  0
    0.7392   -4.2861    0.3602 N   0  0  0  0  0  0  0  0  0  0  0  0
    1.8504   -4.3096   -0.4341 C   0  0  0  0  0  0  0  0  0  0  0  0
    2.3946   -5.4672   -0.8130 N   0  0  0  0  0  0  0  0  0  0  0  0
    1.8755   -6.6138   -0.4317 C   0  0  0  0  0  0  0  0  0  0  0  0
    0.7376   -6.6327    0.3827 C   0  0  0  0  0  0  0  0  0  0  0  0
    0.1783   -5.4584    0.7722 C   0  0  0  0  0  0  0  0  0  0  0  0
   -1.0475   -5.4510    1.6486 C   0  0  0  0  0  0  0  0  0  0  0  0
    0.1391   -7.9436    0.8234 C   0  0  0  0  0  0  0  0  0  0  0  0
    0.7759   -8.3761    2.1457 C   0  0  0  0  0  0  0  0  0  0  0  0
    0.1774   -9.6870    2.5865 C   0  0  0  0  0  0  0  0  0  0  0  0
   -0.6714  -10.2207    1.9122 O   0  0  0  0  0  0  0  0  0  0  0  0
    2.5073   -7.9092   -0.8720 C   0  0  0  0  0  0  0  0  0  0  0  0
    1.2199   -0.6801   -0.0132 C   0  0  0  0  0  0  0  0  0  0  0  0
    2.4130    0.0414   -0.0207 C   0  0  0  0  0  0  0  0  0  0  0  0
    2.3846    1.4212   -0.0130 C   0  0  0  0  0  0  0  0  0  0  0  0
    1.1756    2.0916    0.0021 C   0  0  0  0  0  0  0  0  0  0  0  0
   -0.0167    1.3811    0.0096 C   0  0  0  0  0  0  0  0  0  0  0  0
    0.0021   -0.0041    0.0020 C   0  0  0  0  0  0  0  0  0  0  0  0
   -1.2029    2.0444    0.0188 O   0  0  0  0  0  0  0  0  0  0  0  0
   -1.1476    3.4723    0.0263 C   0  0  0  0  0  0  0  0  0  0  0  0
    3.1292   -0.9276   -5.1122 H   0  0  0  0  0  0  0  0  0  0  0  0
    4.8032   -1.3107   -5.5807 H   0  0  0  0  0  0  0  0  0  0  0  0
    3.5996   -2.6139   -5.4339 H   0  0  0  0  0  0  0  0  0  0  0  0
    4.6368   -0.8825   -3.1440 H   0  0  0  0  0  0  0  0  0  0  0  0
    5.1072   -2.5688   -3.4657 H   0  0  0  0  0  0  0  0  0  0  0  0
   -0.7454   -5.4418    2.6959 H   0  0  0  0  0  0  0  0  0  0  0  0
   -1.6421   -4.5629    1.4342 H   0  0  0  0  0  0  0  0  0  0  0  0
   -1.6418   -6.3428    1.4497 H   0  0  0  0  0  0  0  0  0  0  0  0
   -0.9358   -7.8248    0.9596 H   0  0  0  0  0  0  0  0  0  0  0  0
    0.3274   -8.7026    0.0641 H   0  0  0  0  0  0  0  0  0  0  0  0
    1.8508   -8.4949    2.0096 H   0  0  0  0  0  0  0  0  0  0  0  0
    0.5876   -7.6171    2.9050 H   0  0  0  0  0  0  0  0  0  0  0  0
    3.2573   -8.2142   -0.1422 H   0  0  0  0  0  0  0  0  0  0  0  0
    1.7403   -8.6799   -0.9484 H   0  0  0  0  0  0  0  0  0  0  0  0
    2.9812   -7.7705   -1.8437 H   0  0  0  0  0  0  0  0  0  0  0  0
    3.3591   -0.4793   -0.0322 H   0  0  0  0  0  0  0  0  0  0  0  0
    3.3095    1.9789   -0.0192 H   0  0  0  0  0  0  0  0  0  0  0  0
    1.1588    3.1715    0.0080 H   0  0  0  0  0  0  0  0  0  0  0  0
   -0.9249   -0.5582    0.0082 H   0  0  0  0  0  0  0  0  0  0  0  0
   -0.6243    3.8204   -0.8642 H   0  0  0  0  0  0  0  0  0  0  0  0
   -2.1605    3.8751    0.0333 H   0  0  0  0  0  0  0  0  0  0  0  0
   -0.6159    3.8107    0.9157 H   0  0  0  0  0  0  0  0  0  0  0  0
    0.5872  -10.2618    3.7281 O   0  5  0  0  0  0  0  0  0  0  0  0
  1  2  1  0  0  0  0
  1 29  1  0  0  0  0
  1 30  1  0  0  0  0
  1 31  1  0  0  0  0
  2  3  1  0  0  0  0
  2 32  1  0  0  0  0
  2 33  1  0  0  0  0
  3  4  1  0  0  0  0
  4  5  2  0  0  0  0
  4  6  1  0  0  0  0
  6 10  2  0  0  0  0
  6  7  1  0  0  0  0
  7  8  2  0  0  0  0
  7 21  1  0  0  0  0
  8  9  1  0  0  0  0
  9 14  1  0  0  0  0
  9 10  1  0  0  0  0
 10 11  1  0  0  0  0
 11 12  2  0  0  0  0
 12 13  1  0  0  0  0
 12 20  1  0  0  0  0
 13 14  2  0  0  0  0
 13 16  1  0  0  0  0
 14 15  1  0  0  0  0
 15 34  1  0  0  0  0
 15 35  1  0  0  0  0
 15 36  1  0  0  0  0
 16 17  1  0  0  0  0
 16 37  1  0  0  0  0
 16 38  1  0  0  0  0
 17 18  1  0  0  0  0
 17 39  1  0  0  0  0
 17 40  1  0  0  0  0
 18 19  2  0  0  0  0
 18 51  1  0  0  0  0
 20 41  1  0  0  0  0
 20 42  1  0  0  0  0
 20 43  1  0  0  0  0
 21 26  2  0  0  0  0
 21 22  1  0  0  0  0
 22 23  2  0  0  0  0
 22 44  1  0  0  0  0
 23 24  1  0  0  0  0
 23 45  1  0  0  0  0
 24 25  2  0  0  0  0
 24 46  1  0  0  0  0
 25 26  1  0  0  0  0
 25 27  1  0  0  0  0
 26 47  1  0  0  0  0
 27 28  1  0  0  0  0
 28 48  1  0  0  0  0
 28 49  1  0  0  0  0
 28 50  1  0  0  0  0
M  CHG  1  51  -1
M  END
$$$$
ZINC04084498
  -OEChem-08230709463D

 57 59  0     1  0  0  0  0  0999 V2000
   -2.8340    2.6196    5.8983 C   0  0  0  0  0  0  0  0  0  0  0  0
   -2.7853    2.6394    4.3922 C   0  0  0  0  0  0  0  0  0  0  0  0
   -3.7398    3.3418    3.6794 C   0  0  0  0  0  0  0  0  0  0  0  0
   -3.6984    3.3616    2.2976 C   0  0  0  0  0  0  0  0  0  0  0  0
   -2.7030    2.6791    1.6253 C   0  0  0  0  0  0  0  0  0  0  0  0
   -1.7475    1.9690    2.3379 C   0  0  0  0  0  0  0  0  0  0  0  0
   -1.7878    1.9558    3.7251 C   0  0  0  0  0  0  0  0  0  0  0  0
   -0.7483    1.1903    4.5025 C   0  0  0  0  0  0  0  0  0  0  0  0
   -0.7710    1.2919    1.6789 O   0  0  0  0  0  0  0  0  0  0  0  0
   -0.9362   -0.0445    1.4912 C   0  0  0  0  0  0  0  0  0  0  0  0
   -2.1218   -0.6568    1.8712 C   0  0  0  0  0  0  0  0  0  0  0  0
   -2.2923   -2.0130    1.6757 C   0  0  0  0  0  0  0  0  0  0  0  0
   -1.2727   -2.7659    1.1085 C   0  0  0  0  0  0  0  0  0  0  0  0
   -0.0842   -2.1536    0.7335 C   0  0  0  0  0  0  0  0  0  0  0  0
    0.0831   -0.7964    0.9248 C   0  0  0  0  0  0  0  0  0  0  0  0
   -1.4433   -4.1428    0.9142 N   0  0  0  0  0  0  0  0  0  0  0  0
   -0.3967   -4.9790    1.0622 C   0  0  0  0  0  0  0  0  0  0  0  0
    0.7114   -4.5325    1.2717 O   0  0  0  0  0  0  0  0  0  0  0  0
   -0.6031   -6.4688    0.9672 C   0  0  2  0  0  0  0  0  0  0  0  0
   -1.6135   -6.7336    1.2789 H   0  0  0  0  0  0  0  0  0  0  0  0
    0.4460   -7.2173    1.8263 C   0  0  0  0  0  0  0  0  0  0  0  0
    0.4942   -8.6168    1.1644 C   0  0  0  0  0  0  0  0  0  0  0  0
    0.3624   -8.3262   -0.3449 C   0  0  1  0  0  0  0  0  0  0  0  0
   -0.3353   -6.9604   -0.4703 C   0  0  0  0  0  0  0  0  0  0  0  0
   -1.6565   -7.1143   -1.2263 C   0  0  0  0  0  0  0  0  0  0  0  0
    0.5744   -5.9712   -1.2016 C   0  0  0  0  0  0  0  0  0  0  0  0
    1.7483   -8.2679   -0.9904 C   0  0  0  0  0  0  0  0  0  0  0  0
   -0.4703   -9.3939   -1.0065 C   0  0  0  0  0  0  0  0  0  0  0  0
   -1.0102  -10.2413   -0.3355 O   0  0  0  0  0  0  0  0  0  0  0  0
   -3.4397    1.7768    6.2312 H   0  0  0  0  0  0  0  0  0  0  0  0
   -1.8230    2.5188    6.2932 H   0  0  0  0  0  0  0  0  0  0  0  0
   -3.2743    3.5488    6.2599 H   0  0  0  0  0  0  0  0  0  0  0  0
   -4.5188    3.8760    4.2030 H   0  0  0  0  0  0  0  0  0  0  0  0
   -4.4450    3.9109    1.7433 H   0  0  0  0  0  0  0  0  0  0  0  0
   -2.6712    2.6947    0.5459 H   0  0  0  0  0  0  0  0  0  0  0  0
   -1.0920    0.1679    4.6598 H   0  0  0  0  0  0  0  0  0  0  0  0
    0.1871    1.1771    3.9431 H   0  0  0  0  0  0  0  0  0  0  0  0
   -0.5880    1.6722    5.4670 H   0  0  0  0  0  0  0  0  0  0  0  0
   -2.9132   -0.0718    2.3161 H   0  0  0  0  0  0  0  0  0  0  0  0
   -3.2169   -2.4888    1.9675 H   0  0  0  0  0  0  0  0  0  0  0  0
    0.7092   -2.7388    0.2927 H   0  0  0  0  0  0  0  0  0  0  0  0
    1.0075   -0.3200    0.6332 H   0  0  0  0  0  0  0  0  0  0  0  0
   -2.3146   -4.4944    0.6733 H   0  0  0  0  0  0  0  0  0  0  0  0
    1.4174   -6.7268    1.7638 H   0  0  0  0  0  0  0  0  0  0  0  0
    0.1153   -7.2912    2.8623 H   0  0  0  0  0  0  0  0  0  0  0  0
   -0.3382   -9.2306    1.5088 H   0  0  0  0  0  0  0  0  0  0  0  0
    1.4433   -9.1090    1.3766 H   0  0  0  0  0  0  0  0  0  0  0  0
   -2.1450   -6.1431   -1.3056 H   0  0  0  0  0  0  0  0  0  0  0  0
   -1.4605   -7.5049   -2.2248 H   0  0  0  0  0  0  0  0  0  0  0  0
   -2.3054   -7.8044   -0.6871 H   0  0  0  0  0  0  0  0  0  0  0  0
    1.5316   -5.9069   -0.6841 H   0  0  0  0  0  0  0  0  0  0  0  0
    0.7362   -6.3136   -2.2237 H   0  0  0  0  0  0  0  0  0  0  0  0
    0.1035   -4.9883   -1.2179 H   0  0  0  0  0  0  0  0  0  0  0  0
    2.3510   -7.5104   -0.4893 H   0  0  0  0  0  0  0  0  0  0  0  0
    2.2340   -9.2392   -0.8965 H   0  0  0  0  0  0  0  0  0  0  0  0
    1.6474   -8.0126   -2.0453 H   0  0  0  0  0  0  0  0  0  0  0  0
   -0.6122   -9.4035   -2.3412 O   0  5  0  0  0  0  0  0  0  0  0  0
  1  2  1  0  0  0  0
  1 30  1  0  0  0  0
  1 31  1  0  0  0  0
  1 32  1  0  0  0  0
  2  7  2  0  0  0  0
  2  3  1  0  0  0  0
  3  4  2  0  0  0  0
  3 33  1  0  0  0  0
  4  5  1  0  0  0  0
  4 34  1  0  0  0  0
  5  6  2  0  0  0  0
  5 35  1  0  0  0  0
  6  7  1  0  0  0  0
  6  9  1  0  0  0  0
  7  8  1  0  0  0  0
  8 36  1  0  0  0  0
  8 37  1  0  0  0  0
  8 38  1  0  0  0  0
  9 10  1  0  0  0  0
 10 15  2  0  0  0  0
 10 11  1  0  0  0  0
 11 12  2  0  0  0  0
 11 39  1  0  0  0  0
 12 13  1  0  0  0  0
 12 40  1  0  0  0  0
 13 14  2  0  0  0  0
 13 16  1  0  0  0  0
 14 15  1  0  0  0  0
 14 41  1  0  0  0  0
 15 42  1  0  0  0  0
 16 17  1  0  0  0  0
 16 43  1  0  0  0  0
 17 18  2  0  0  0  0
 17 19  1  0  0  0  0
 19 20  1  0  0  0  0
 19 24  1  0  0  0  0
 19 21  1  0  0  0  0
 21 22  1  0  0  0  0
 21 44  1  0  0  0  0
 21 45  1  0  0  0  0
 22 23  1  0  0  0  0
 22 46  1  0  0  0  0
 22 47  1  0  0  0  0
 23 24  1  0  0  0  0
 23 27  1  0  0  0  0
 23 28  1  0  0  0  0
 24 25  1  0  0  0  0
 24 26  1  0  0  0  0
 25 48  1  0  0  0  0
 25 49  1  0  0  0  0
 25 50  1  0  0  0  0
 26 51  1  0  0  0  0
 26 52  1  0  0  0  0
 26 53  1  0  0  0  0
 27 54  1  0  0  0  0
 27 55  1  0  0  0  0
 27 56  1  0  0  0  0
 28 29  2  0  0  0  0
 28 57  1  0  0  0  0
M  CHG  1  57  -1
M  END
$$$$
ZINC04084503
  -OEChem-08230709463D

 57 59  0     1  0  0  0  0  0999 V2000
   15.5593    1.0972    2.5711 C   0  0  0  0  0  0  0  0  0  0  0  0
   14.0658    0.9826    2.7365 C   0  0  0  0  0  0  0  0  0  0  0  0
   13.5400    0.3669    3.8576 C   0  0  0  0  0  0  0  0  0  0  0  0
   12.1704    0.2602    4.0124 C   0  0  0  0  0  0  0  0  0  0  0  0
   11.3231    0.7686    3.0468 C   0  0  0  0  0  0  0  0  0  0  0  0
   11.8480    1.3868    1.9210 C   0  0  0  0  0  0  0  0  0  0  0  0
   13.2234    1.4880    1.7656 C   0  0  0  0  0  0  0  0  0  0  0  0
   13.7971    2.1532    0.5412 C   0  0  0  0  0  0  0  0  0  0  0  0
   11.0169    1.8873    0.9697 O   0  0  0  0  0  0  0  0  0  0  0  0
    9.6795    1.8606    1.2123 C   0  0  0  0  0  0  0  0  0  0  0  0
    9.1171    2.7686    2.0979 C   0  0  0  0  0  0  0  0  0  0  0  0
    7.7588    2.7419    2.3447 C   0  0  0  0  0  0  0  0  0  0  0  0
    6.9557    1.8061    1.7064 C   0  0  0  0  0  0  0  0  0  0  0  0
    7.5200    0.8939    0.8246 C   0  0  0  0  0  0  0  0  0  0  0  0
    8.8774    0.9256    0.5738 C   0  0  0  0  0  0  0  0  0  0  0  0
    5.5775    1.7786    1.9564 N   0  0  0  0  0  0  0  0  0  0  0  0
    4.7191    1.4644    0.9660 C   0  0  0  0  0  0  0  0  0  0  0  0
    5.1426    1.1330   -0.1212 O   0  0  0  0  0  0  0  0  0  0  0  0
    3.2331    1.5250    1.2093 C   0  0  1  0  0  0  0  0  0  0  0  0
    2.9957    2.3174    1.9192 H   0  0  0  0  0  0  0  0  0  0  0  0
    2.4742    1.7453   -0.1228 C   0  0  0  0  0  0  0  0  0  0  0  0
    1.0641    1.1864    0.1906 C   0  0  0  0  0  0  0  0  0  0  0  0
    1.3347   -0.0501    1.0724 C   0  0  2  0  0  0  0  0  0  0  0  0
    2.7138    0.1652    1.7201 C   0  0  0  0  0  0  0  0  0  0  0  0
    2.5784    0.1947    3.2438 C   0  0  0  0  0  0  0  0  0  0  0  0
    3.6704   -0.9525    1.2999 C   0  0  0  0  0  0  0  0  0  0  0  0
    1.3507   -1.3146    0.2112 C   0  0  0  0  0  0  0  0  0  0  0  0
    0.2760   -0.1655    2.1386 C   0  0  0  0  0  0  0  0  0  0  0  0
   -0.5460    0.7102    2.2711 O   0  0  0  0  0  0  0  0  0  0  0  0
   15.9345    0.2212    2.0421 H   0  0  0  0  0  0  0  0  0  0  0  0
   15.7937    1.9950    1.9993 H   0  0  0  0  0  0  0  0  0  0  0  0
   16.0299    1.1583    3.5524 H   0  0  0  0  0  0  0  0  0  0  0  0
   14.2006   -0.0309    4.6138 H   0  0  0  0  0  0  0  0  0  0  0  0
   11.7623   -0.2214    4.8887 H   0  0  0  0  0  0  0  0  0  0  0  0
   10.2533    0.6847    3.1680 H   0  0  0  0  0  0  0  0  0  0  0  0
   13.9237    3.2188    0.7323 H   0  0  0  0  0  0  0  0  0  0  0  0
   14.7641    1.7088    0.3056 H   0  0  0  0  0  0  0  0  0  0  0  0
   13.1183    2.0132   -0.3001 H   0  0  0  0  0  0  0  0  0  0  0  0
    9.7419    3.4962    2.5946 H   0  0  0  0  0  0  0  0  0  0  0  0
    7.3211    3.4490    3.0338 H   0  0  0  0  0  0  0  0  0  0  0  0
    6.8966    0.1627    0.3316 H   0  0  0  0  0  0  0  0  0  0  0  0
    9.3158    0.2190   -0.1154 H   0  0  0  0  0  0  0  0  0  0  0  0
    5.2411    1.9856    2.8423 H   0  0  0  0  0  0  0  0  0  0  0  0
    2.9417    1.1831   -0.9313 H   0  0  0  0  0  0  0  0  0  0  0  0
    2.4232    2.8055   -0.3708 H   0  0  0  0  0  0  0  0  0  0  0  0
    0.5560    0.8955   -0.7288 H   0  0  0  0  0  0  0  0  0  0  0  0
    0.4726    1.9218    0.7360 H   0  0  0  0  0  0  0  0  0  0  0  0
    2.2539   -0.7835    3.5988 H   0  0  0  0  0  0  0  0  0  0  0  0
    3.5419    0.4417    3.6895 H   0  0  0  0  0  0  0  0  0  0  0  0
    1.8427    0.9469    3.5287 H   0  0  0  0  0  0  0  0  0  0  0  0
    3.8441   -0.8972    0.2253 H   0  0  0  0  0  0  0  0  0  0  0  0
    4.6173   -0.8378    1.8275 H   0  0  0  0  0  0  0  0  0  0  0  0
    3.2312   -1.9189    1.5477 H   0  0  0  0  0  0  0  0  0  0  0  0
    0.3737   -1.4507   -0.2526 H   0  0  0  0  0  0  0  0  0  0  0  0
    2.1105   -1.2166   -0.5641 H   0  0  0  0  0  0  0  0  0  0  0  0
    1.5792   -2.1774    0.8369 H   0  0  0  0  0  0  0  0  0  0  0  0
    0.2495   -1.2384    2.9448 O   0  5  0  0  0  0  0  0  0  0  0  0
  1  2  1  0  0  0  0
  1 30  1  0  0  0  0
  1 31  1  0  0  0  0
  1 32  1  0  0  0  0
  2  7  2  0  0  0  0
  2  3  1  0  0  0  0
  3  4  2  0  0  0  0
  3 33  1  0  0  0  0
  4  5  1  0  0  0  0
  4 34  1  0  0  0  0
  5  6  2  0  0  0  0
  5 35  1  0  0  0  0
  6  7  1  0  0  0  0
  6  9  1  0  0  0  0
  7  8  1  0  0  0  0
  8 36  1  0  0  0  0
  8 37  1  0  0  0  0
  8 38  1  0  0  0  0
  9 10  1  0  0  0  0
 10 15  2  0  0  0  0
 10 11  1  0  0  0  0
 11 12  2  0  0  0  0
 11 39  1  0  0  0  0
 12 13  1  0  0  0  0
 12 40  1  0  0  0  0
 13 14  2  0  0  0  0
 13 16  1  0  0  0  0
 14 15  1  0  0  0  0
 14 41  1  0  0  0  0
 15 42  1  0  0  0  0
 16 17  1  0  0  0  0
 16 43  1  0  0  0  0
 17 18  2  0  0  0  0
 17 19  1  0  0  0  0
 19 20  1  0  0  0  0
 19 24  1  0  0  0  0
 19 21  1  0  0  0  0
 21 22  1  0  0  0  0
 21 44  1  0  0  0  0
 21 45  1  0  0  0  0
 22 23  1  0  0  0  0
 22 46  1  0  0  0  0
 22 47  1  0  0  0  0
 23 24  1  0  0  0  0
 23 27  1  0  0  0  0
 23 28  1  0  0  0  0
 24 25  1  0  0  0  0
 24 26  1  0  0  0  0
 25 48  1  0  0  0  0
 25 49  1  0  0  0  0
 25 50  1  0  0  0  0
 26 51  1  0  0  0  0
 26 52  1  0  0  0  0
 26 53  1  0  0  0  0
 27 54  1  0  0  0  0
 27 55  1  0  0  0  0
 27 56  1  0  0  0  0
 28 29  2  0  0  0  0
 28 57  1  0  0  0  0
M  CHG  1  57  -1
M  END
$$$$
ZINC04090732
  -OEChem-08230709463D

 53 54  0     1  0  0  0  0  0999 V2000
   -1.5002    0.0724    1.3349 C   0  0  0  0  0  0  0  0  0  0  0  0
   -0.1148    0.7129    1.2279 C   0  0  0  0  0  0  0  0  0  0  0  0
    0.4155    0.5471   -0.1986 C   0  0  0  0  0  0  0  0  0  0  0  0
   -0.5119    1.2837   -1.1700 C   0  0  1  0  0  0  0  0  0  0  0  0
   -1.5034    0.8318   -1.1410 H   0  0  0  0  0  0  0  0  0  0  0  0
   -0.6066    2.7544   -0.7523 C   0  0  0  0  0  0  0  0  0  0  0  0
   -1.0990    2.8350    0.6950 C   0  0  0  0  0  0  0  0  0  0  0  0
   -0.2089    2.1041    1.5410 O   0  0  0  0  0  0  0  0  0  0  0  0
    0.0528    1.1881   -2.5888 C   0  0  1  0  0  0  0  0  0  0  0  0
    0.1258    0.1405   -2.8809 H   0  0  0  0  0  0  0  0  0  0  0  0
   -0.8748    1.9242   -3.5576 C   0  0  0  0  0  0  0  0  0  0  0  0
   -0.3961    1.7118   -4.9707 C   0  0  0  0  0  0  0  0  0  0  0  0
    0.6022    1.0639   -5.1794 O   0  0  0  0  0  0  0  0  0  0  0  0
    1.3835    1.7996   -2.6270 N   0  0  0  0  0  0  0  0  0  0  0  0
    2.4833    1.0205   -2.6315 C   0  0  0  0  0  0  0  0  0  0  0  0
    2.3714   -0.1898   -2.6968 O   0  0  0  0  0  0  0  0  0  0  0  0
    3.8110    1.6293   -2.5580 C   0  0  0  0  0  0  0  0  0  0  0  0
    4.9125    0.8490   -2.5625 C   0  0  0  0  0  0  0  0  0  0  0  0
    6.2470    1.4609   -2.4886 C   0  0  0  0  0  0  0  0  0  0  0  0
    6.3779    2.8523   -2.4135 C   0  0  0  0  0  0  0  0  0  0  0  0
    7.6296    3.4231   -2.3439 C   0  0  0  0  0  0  0  0  0  0  0  0
    8.7634    2.6214   -2.3475 C   0  0  0  0  0  0  0  0  0  0  0  0
    8.6413    1.2344   -2.4221 C   0  0  0  0  0  0  0  0  0  0  0  0
    7.3902    0.6535   -2.4874 C   0  0  0  0  0  0  0  0  0  0  0  0
    9.7546    0.4532   -2.4254 O   0  0  0  0  0  0  0  0  0  0  0  0
    9.5554   -0.9596   -2.5039 C   0  0  0  0  0  0  0  0  0  0  0  0
    9.9950    3.1900   -2.2778 O   0  0  0  0  0  0  0  0  0  0  0  0
    0.8401    0.0309    2.2097 C   0  0  0  0  0  0  0  0  0  0  0  0
   -1.4296   -0.9884    1.0946 H   0  0  0  0  0  0  0  0  0  0  0  0
   -1.8776    0.1905    2.3506 H   0  0  0  0  0  0  0  0  0  0  0  0
   -2.1803    0.5589    0.6357 H   0  0  0  0  0  0  0  0  0  0  0  0
    0.4452   -0.5118   -0.4555 H   0  0  0  0  0  0  0  0  0  0  0  0
    1.4195    0.9663   -0.2650 H   0  0  0  0  0  0  0  0  0  0  0  0
    0.3764    3.2189   -0.8290 H   0  0  0  0  0  0  0  0  0  0  0  0
   -1.3072    3.2743   -1.4058 H   0  0  0  0  0  0  0  0  0  0  0  0
   -1.1275    3.8776    1.0118 H   0  0  0  0  0  0  0  0  0  0  0  0
   -2.0990    2.4067    0.7632 H   0  0  0  0  0  0  0  0  0  0  0  0
   -1.8885    1.5368   -3.4553 H   0  0  0  0  0  0  0  0  0  0  0  0
   -0.8681    2.9898   -3.3281 H   0  0  0  0  0  0  0  0  0  0  0  0
    1.4731    2.7652   -2.6490 H   0  0  0  0  0  0  0  0  0  0  0  0
    3.9102    2.7032   -2.5001 H   0  0  0  0  0  0  0  0  0  0  0  0
    4.8133   -0.2248   -2.6204 H   0  0  0  0  0  0  0  0  0  0  0  0
    5.4978    3.4783   -2.4105 H   0  0  0  0  0  0  0  0  0  0  0  0
    7.7294    4.4969   -2.2859 H   0  0  0  0  0  0  0  0  0  0  0  0
    7.2943   -0.4209   -2.5407 H   0  0  0  0  0  0  0  0  0  0  0  0
    8.9671   -1.2917   -1.6485 H   0  0  0  0  0  0  0  0  0  0  0  0
    9.0253   -1.2013   -3.4252 H   0  0  0  0  0  0  0  0  0  0  0  0
   10.5218   -1.4637   -2.4979 H   0  0  0  0  0  0  0  0  0  0  0  0
   10.3225    3.3095   -1.3758 H   0  0  0  0  0  0  0  0  0  0  0  0
    1.8268    0.4877    2.1336 H   0  0  0  0  0  0  0  0  0  0  0  0
    0.4623    0.1490    3.2253 H   0  0  0  0  0  0  0  0  0  0  0  0
    0.9114   -1.0300    1.9697 H   0  0  0  0  0  0  0  0  0  0  0  0
   -1.0788    2.2422   -5.9975 O   0  5  0  0  0  0  0  0  0  0  0  0
  1  2  1  0  0  0  0
  1 29  1  0  0  0  0
  1 30  1  0  0  0  0
  1 31  1  0  0  0  0
  2  8  1  0  0  0  0
  2  3  1  0  0  0  0
  2 28  1  0  0  0  0
  3  4  1  0  0  0  0
  3 32  1  0  0  0  0
  3 33  1  0  0  0  0
  4  5  1  0  0  0  0
  4  6  1  0  0  0  0
  4  9  1  0  0  0  0
  6  7  1  0  0  0  0
  6 34  1  0  0  0  0
  6 35  1  0  0  0  0
  7  8  1  0  0  0  0
  7 36  1  0  0  0  0
  7 37  1  0  0  0  0
  9 10  1  0  0  0  0
  9 11  1  0  0  0  0
  9 14  1  0  0  0  0
 11 12  1  0  0  0  0
 11 38  1  0  0  0  0
 11 39  1  0  0  0  0
 12 13  2  0  0  0  0
 12 53  1  0  0  0  0
 14 15  1  0  0  0  0
 14 40  1  0  0  0  0
 15 16  2  0  0  0  0
 15 17  1  0  0  0  0
 17 18  2  0  0  0  0
 17 41  1  0  0  0  0
 18 19  1  0  0  0  0
 18 42  1  0  0  0  0
 19 24  2  0  0  0  0
 19 20  1  0  0  0  0
 20 21  2  0  0  0  0
 20 43  1  0  0  0  0
 21 22  1  0  0  0  0
 21 44  1  0  0  0  0
 22 23  2  0  0  0  0
 22 27  1  0  0  0  0
 23 24  1  0  0  0  0
 23 25  1  0  0  0  0
 24 45  1  0  0  0  0
 25 26  1  0  0  0  0
 26 46  1  0  0  0  0
 26 47  1  0  0  0  0
 26 48  1  0  0  0  0
 27 49  1  0  0  0  0
 28 50  1  0  0  0  0
 28 51  1  0  0  0  0
 28 52  1  0  0  0  0
M  CHG  1  53  -1
M  END
$$$$
ZINC04116260
  -OEChem-08230709463D

 55 58  0     0  0  0  0  0  0999 V2000
   -2.2866    2.0098   -7.0257 C   0  0  0  0  0  0  0  0  0  0  0  0
   -1.2643    0.8832   -7.1887 C   0  0  0  0  0  0  0  0  0  0  0  0
   -0.1052    1.1480   -6.3328 N   0  0  0  0  0  0  0  0  0  0  0  0
    1.0274    1.9192   -6.8512 C   0  0  0  0  0  0  0  0  0  0  0  0
    2.0405    0.9690   -7.4927 C   0  0  0  0  0  0  0  0  0  0  0  0
   -0.0799    0.6646   -5.0210 C   0  0  0  0  0  0  0  0  0  0  0  0
    1.0191    0.9155   -4.2092 C   0  0  0  0  0  0  0  0  0  0  0  0
    1.0441    0.4378   -2.9144 C   0  0  0  0  0  0  0  0  0  0  0  0
   -0.0291   -0.2940   -2.4234 C   0  0  0  0  0  0  0  0  0  0  0  0
   -1.1253   -0.5498   -3.2365 C   0  0  0  0  0  0  0  0  0  0  0  0
   -1.1535   -0.0671   -4.5294 C   0  0  0  0  0  0  0  0  0  0  0  0
   -0.0033   -0.7796   -1.1082 N   0  0  0  0  0  0  0  0  0  0  0  0
    0.0021   -0.0041    0.0020 C   0  0  0  0  0  0  0  0  0  0  0  0
    0.0229   -0.7984    1.1135 C   0  0  0  0  0  0  0  0  0  0  0  0
    0.0370   -2.1918    0.6305 C   0  0  0  0  0  0  0  0  0  0  0  0
    0.0230   -2.1136   -0.7626 C   0  0  0  0  0  0  0  0  0  0  0  0
    0.0311   -3.3062   -1.5193 C   0  0  0  0  0  0  0  0  0  0  0  0
    0.0173   -3.2749   -2.9218 C   0  0  0  0  0  0  0  0  0  0  0  0
    0.0259   -4.4429   -3.6233 C   0  0  0  0  0  0  0  0  0  0  0  0
    0.0475   -5.6703   -2.9667 C   0  0  0  0  0  0  0  0  0  0  0  0
    0.0609   -5.7366   -1.6060 C   0  0  0  0  0  0  0  0  0  0  0  0
    0.0531   -4.5537   -0.8509 C   0  0  0  0  0  0  0  0  0  0  0  0
    0.0664   -4.5938    0.5619 C   0  0  0  0  0  0  0  0  0  0  0  0
    0.0591   -3.4368    1.2785 C   0  0  0  0  0  0  0  0  0  0  0  0
    0.0876   -5.7903    1.2061 O   0  0  0  0  0  0  0  0  0  0  0  0
    0.1001   -5.7578    2.6347 C   0  0  0  0  0  0  0  0  0  0  0  0
    0.0296   -0.3531    2.5119 C   0  0  0  0  0  0  0  0  0  0  0  0
   -1.0206   -0.1825    3.1006 O   0  0  0  0  0  0  0  0  0  0  0  0
   -0.0184    1.5028    0.0103 C   0  0  0  0  0  0  0  0  0  0  0  0
   -3.1490    1.8128   -7.6625 H   0  0  0  0  0  0  0  0  0  0  0  0
   -2.6075    2.0614   -5.9852 H   0  0  0  0  0  0  0  0  0  0  0  0
   -1.8316    2.9577   -7.3130 H   0  0  0  0  0  0  0  0  0  0  0  0
   -0.9434    0.8316   -8.2291 H   0  0  0  0  0  0  0  0  0  0  0  0
   -1.7192   -0.0647   -6.9014 H   0  0  0  0  0  0  0  0  0  0  0  0
    0.6720    2.6294   -7.5978 H   0  0  0  0  0  0  0  0  0  0  0  0
    1.5037    2.4598   -6.0333 H   0  0  0  0  0  0  0  0  0  0  0  0
    2.8831    1.5428   -7.8785 H   0  0  0  0  0  0  0  0  0  0  0  0
    2.3959    0.2588   -6.7461 H   0  0  0  0  0  0  0  0  0  0  0  0
    1.5642    0.4284   -8.3107 H   0  0  0  0  0  0  0  0  0  0  0  0
    1.8538    1.4846   -4.5911 H   0  0  0  0  0  0  0  0  0  0  0  0
    1.8985    0.6329   -2.2833 H   0  0  0  0  0  0  0  0  0  0  0  0
   -1.9579   -1.1228   -2.8558 H   0  0  0  0  0  0  0  0  0  0  0  0
   -2.0079   -0.2626   -5.1604 H   0  0  0  0  0  0  0  0  0  0  0  0
    0.0002   -2.3292   -3.4431 H   0  0  0  0  0  0  0  0  0  0  0  0
    0.0156   -4.4162   -4.7030 H   0  0  0  0  0  0  0  0  0  0  0  0
    0.0532   -6.5829   -3.5442 H   0  0  0  0  0  0  0  0  0  0  0  0
    0.0772   -6.6959   -1.1102 H   0  0  0  0  0  0  0  0  0  0  0  0
    0.0701   -3.4770    2.3577 H   0  0  0  0  0  0  0  0  0  0  0  0
    0.1167   -6.7768    3.0211 H   0  0  0  0  0  0  0  0  0  0  0  0
    0.9864   -5.2244    2.9782 H   0  0  0  0  0  0  0  0  0  0  0  0
   -0.7933   -5.2473    2.9943 H   0  0  0  0  0  0  0  0  0  0  0  0
    1.0042    1.8801    0.0026 H   0  0  0  0  0  0  0  0  0  0  0  0
   -0.5455    1.8639   -0.8728 H   0  0  0  0  0  0  0  0  0  0  0  0
   -0.5286    1.8543    0.9071 H   0  0  0  0  0  0  0  0  0  0  0  0
    1.2002   -0.1331    3.1438 O   0  5  0  0  0  0  0  0  0  0  0  0
  1  2  1  0  0  0  0
  1 30  1  0  0  0  0
  1 31  1  0  0  0  0
  1 32  1  0  0  0  0
  2  3  1  0  0  0  0
  2 33  1  0  0  0  0
  2 34  1  0  0  0  0
  3  4  1  0  0  0  0
  3  6  1  0  0  0  0
  4  5  1  0  0  0  0
  4 35  1  0  0  0  0
  4 36  1  0  0  0  0
  5 37  1  0  0  0  0
  5 38  1  0  0  0  0
  5 39  1  0  0  0  0
  6 11  2  0  0  0  0
  6  7  1  0  0  0  0
  7  8  2  0  0  0  0
  7 40  1  0  0  0  0
  8  9  1  0  0  0  0
  8 41  1  0  0  0  0
  9 10  2  0  0  0  0
  9 12  1  0  0  0  0
 10 11  1  0  0  0  0
 10 42  1  0  0  0  0
 11 43  1  0  0  0  0
 12 16  1  0  0  0  0
 12 13  1  0  0  0  0
 13 14  2  0  0  0  0
 13 29  1  0  0  0  0
 14 15  1  0  0  0  0
 14 27  1  0  0  0  0
 15 24  2  0  0  0  0
 15 16  1  0  0  0  0
 16 17  2  0  0  0  0
 17 22  1  0  0  0  0
 17 18  1  0  0  0  0
 18 19  2  0  0  0  0
 18 44  1  0  0  0  0
 19 20  1  0  0  0  0
 19 45  1  0  0  0  0
 20 21  2  0  0  0  0
 20 46  1  0  0  0  0
 21 22  1  0  0  0  0
 21 47  1  0  0  0  0
 22 23  2  0  0  0  0
 23 24  1  0  0  0  0
 23 25  1  0  0  0  0
 24 48  1  0  0  0  0
 25 26  1  0  0  0  0
 26 49  1  0  0  0  0
 26 50  1  0  0  0  0
 26 51  1  0  0  0  0
 27 28  2  0  0  0  0
 27 55  1  0  0  0  0
 29 52  1  0  0  0  0
 29 53  1  0  0  0  0
 29 54  1  0  0  0  0
M  CHG  1  55  -1
M  END
$$$$
ZINC04143447
  -OEChem-08230709463D

 54 57  0     0  0  0  0  0  0999 V2000
    1.0900    6.1444    0.0228 C   0  0  0  0  0  0  0  0  0  0  0  0
    2.3188    5.5224    0.0082 C   0  0  0  0  0  0  0  0  0  0  0  0
    2.3952    4.1228    0.0009 C   0  0  0  0  0  0  0  0  0  0  0  0
    3.6341    3.4389   -0.0146 C   0  0  0  0  0  0  0  0  0  0  0  0
    3.6539    2.0519   -0.0218 C   0  0  0  0  0  0  0  0  0  0  0  0
    2.4831    1.3159   -0.0150 C   0  0  0  0  0  0  0  0  0  0  0  0
    1.2484    1.9579    0.0007 C   0  0  0  0  0  0  0  0  0  0  0  0
    1.2028    3.3719    0.0087 C   0  0  0  0  0  0  0  0  0  0  0  0
   -0.0502    4.0256    0.0241 C   0  0  0  0  0  0  0  0  0  0  0  0
   -0.0897    5.4134    0.0301 C   0  0  0  0  0  0  0  0  0  0  0  0
   -1.2721    3.2090    0.0314 C   0  0  0  0  0  0  0  0  0  0  0  0
   -2.3614    3.7500    0.0447 O   0  0  0  0  0  0  0  0  0  0  0  0
   -1.1919    1.8650    0.0179 N   0  0  0  0  0  0  0  0  0  0  0  0
   -0.0144    1.2126    0.0087 C   0  0  0  0  0  0  0  0  0  0  0  0
    0.0021   -0.0041    0.0020 O   0  0  0  0  0  0  0  0  0  0  0  0
   -2.4313    1.0840    0.0195 C   0  0  0  0  0  0  0  0  0  0  0  0
   -2.8559    0.8043    1.4626 C   0  0  0  0  0  0  0  0  0  0  0  0
   -4.1504   -0.0113    1.4643 C   0  0  0  0  0  0  0  0  0  0  0  0
   -4.5750   -0.2911    2.9074 C   0  0  0  0  0  0  0  0  0  0  0  0
   -5.8695   -1.1067    2.9091 C   0  0  0  0  0  0  0  0  0  0  0  0
   -6.2877   -1.3822    4.3305 C   0  0  0  0  0  0  0  0  0  0  0  0
   -5.6190   -0.9686    5.2479 O   0  0  0  0  0  0  0  0  0  0  0  0
    4.8193    4.1500   -0.0230 N   0  0  0  0  0  0  0  0  0  0  0  0
    5.5652    3.9151   -1.2659 C   0  0  0  0  0  0  0  0  0  0  0  0
    6.7946    4.8257   -1.3046 C   0  0  0  0  0  0  0  0  0  0  0  0
    7.6811    4.5299   -0.0917 C   0  0  0  0  0  0  0  0  0  0  0  0
    6.8664    4.7354    1.1884 C   0  0  0  0  0  0  0  0  0  0  0  0
    5.6350    3.8274    1.1547 C   0  0  0  0  0  0  0  0  0  0  0  0
    1.0435    7.2234    0.0283 H   0  0  0  0  0  0  0  0  0  0  0  0
    3.2231    6.1129    0.0027 H   0  0  0  0  0  0  0  0  0  0  0  0
    4.6029    1.5364   -0.0332 H   0  0  0  0  0  0  0  0  0  0  0  0
    2.5272    0.2368   -0.0212 H   0  0  0  0  0  0  0  0  0  0  0  0
   -1.0407    5.9253    0.0409 H   0  0  0  0  0  0  0  0  0  0  0  0
   -3.2156    1.6461   -0.4875 H   0  0  0  0  0  0  0  0  0  0  0  0
   -2.2667    0.1402   -0.5002 H   0  0  0  0  0  0  0  0  0  0  0  0
   -2.0716    0.2422    1.9696 H   0  0  0  0  0  0  0  0  0  0  0  0
   -3.0205    1.7482    1.9823 H   0  0  0  0  0  0  0  0  0  0  0  0
   -4.9347    0.5507    0.9573 H   0  0  0  0  0  0  0  0  0  0  0  0
   -3.9858   -0.9552    0.9446 H   0  0  0  0  0  0  0  0  0  0  0  0
   -3.7907   -0.8531    3.4144 H   0  0  0  0  0  0  0  0  0  0  0  0
   -4.7396    0.6528    3.4271 H   0  0  0  0  0  0  0  0  0  0  0  0
   -6.6537   -0.5446    2.4020 H   0  0  0  0  0  0  0  0  0  0  0  0
   -5.7049   -2.0506    2.3893 H   0  0  0  0  0  0  0  0  0  0  0  0
    5.8834    2.8734   -1.3072 H   0  0  0  0  0  0  0  0  0  0  0  0
    4.9247    4.1331   -2.1206 H   0  0  0  0  0  0  0  0  0  0  0  0
    6.4765    5.8679   -1.2773 H   0  0  0  0  0  0  0  0  0  0  0  0
    7.3564    4.6400   -2.2200 H   0  0  0  0  0  0  0  0  0  0  0  0
    8.5360    5.2061   -0.0918 H   0  0  0  0  0  0  0  0  0  0  0  0
    8.0311    3.4987   -0.1391 H   0  0  0  0  0  0  0  0  0  0  0  0
    6.5494    5.7762    1.2549 H   0  0  0  0  0  0  0  0  0  0  0  0
    7.4796    4.4851    2.0541 H   0  0  0  0  0  0  0  0  0  0  0  0
    5.0452    3.9817    2.0583 H   0  0  0  0  0  0  0  0  0  0  0  0
    5.9530    2.7862    1.1021 H   0  0  0  0  0  0  0  0  0  0  0  0
   -7.4030   -2.0871    4.5772 O   0  5  0  0  0  0  0  0  0  0  0  0
  1 10  2  0  0  0  0
  1  2  1  0  0  0  0
  1 29  1  0  0  0  0
  2  3  2  0  0  0  0
  2 30  1  0  0  0  0
  3  8  1  0  0  0  0
  3  4  1  0  0  0  0
  4  5  2  0  0  0  0
  4 23  1  0  0  0  0
  5  6  1  0  0  0  0
  5 31  1  0  0  0  0
  6  7  2  0  0  0  0
  6 32  1  0  0  0  0
  7 14  1  0  0  0  0
  7  8  1  0  0  0  0
  8  9  2  0  0  0  0
  9 10  1  0  0  0  0
  9 11  1  0  0  0  0
 10 33  1  0  0  0  0
 11 12  2  0  0  0  0
 11 13  1  0  0  0  0
 13 14  1  0  0  0  0
 13 16  1  0  0  0  0
 14 15  2  0  0  0  0
 16 17  1  0  0  0  0
 16 34  1  0  0  0  0
 16 35  1  0  0  0  0
 17 18  1  0  0  0  0
 17 36  1  0  0  0  0
 17 37  1  0  0  0  0
 18 19  1  0  0  0  0
 18 38  1  0  0  0  0
 18 39  1  0  0  0  0
 19 20  1  0  0  0  0
 19 40  1  0  0  0  0
 19 41  1  0  0  0  0
 20 21  1  0  0  0  0
 20 42  1  0  0  0  0
 20 43  1  0  0  0  0
 21 22  2  0  0  0  0
 21 54  1  0  0  0  0
 23 28  1  0  0  0  0
 23 24  1  0  0  0  0
 24 25  1  0  0  0  0
 24 44  1  0  0  0  0
 24 45  1  0  0  0  0
 25 26  1  0  0  0  0
 25 46  1  0  0  0  0
 25 47  1  0  0  0  0
 26 27  1  0  0  0  0
 26 48  1  0  0  0  0
 26 49  1  0  0  0  0
 27 28  1  0  0  0  0
 27 50  1  0  0  0  0
 27 51  1  0  0  0  0
 28 52  1  0  0  0  0
 28 53  1  0  0  0  0
M  CHG  1  54  -1
M  END
$$$$
ZINC04222649
  -OEChem-08230709463D

 54 56  0     1  0  0  0  0  0999 V2000
    5.2592   10.7762   -0.5686 C   0  0  0  0  0  0  0  0  0  0  0  0
    4.3878    9.8844    0.2778 C   0  0  0  0  0  0  0  0  0  0  0  0
    3.4597   10.4453    1.1292 C   0  0  0  0  0  0  0  0  0  0  0  0
    2.6573    9.6248    1.9085 C   0  0  0  0  0  0  0  0  0  0  0  0
    2.7983    8.2498    1.8254 C   0  0  0  0  0  0  0  0  0  0  0  0
    3.7350    7.6881    0.9691 C   0  0  0  0  0  0  0  0  0  0  0  0
    4.5275    8.5049    0.1929 C   0  0  0  0  0  0  0  0  0  0  0  0
    5.5529    7.9627   -0.7685 C   0  0  0  0  0  0  0  0  0  0  0  0
    5.8821    6.5082   -0.4399 C   0  0  0  0  0  0  0  0  0  0  0  0
    4.5671    5.7276   -0.3288 C   0  0  2  0  0  0  0  0  0  0  0  0
    3.9470    5.9267   -1.2029 H   0  0  0  0  0  0  0  0  0  0  0  0
    3.8392    6.1857    0.9333 C   0  0  0  0  0  0  0  0  0  0  0  0
    4.8633    4.2294   -0.2377 C   0  0  2  0  0  0  0  0  0  0  0  0
    5.4834    4.0341    0.6372 H   0  0  0  0  0  0  0  0  0  0  0  0
    5.6037    3.7783   -1.4984 C   0  0  0  0  0  0  0  0  0  0  0  0
    3.5686    3.4678   -0.1160 C   0  0  0  0  0  0  0  0  0  0  0  0
    2.5129    4.0647   -0.1033 O   0  0  0  0  0  0  0  0  0  0  0  0
    3.5839    2.1235   -0.0211 N   0  0  0  0  0  0  0  0  0  0  0  0
    2.3811    1.4085   -0.0194 C   0  0  0  0  0  0  0  0  0  0  0  0
    2.2686    0.2378    0.7191 C   0  0  0  0  0  0  0  0  0  0  0  0
    1.0800   -0.4656    0.7187 C   0  0  0  0  0  0  0  0  0  0  0  0
    0.0029   -0.0055   -0.0163 C   0  0  0  0  0  0  0  0  0  0  0  0
    0.1120    1.1593   -0.7535 C   0  0  0  0  0  0  0  0  0  0  0  0
    1.2977    1.8676   -0.7569 C   0  0  0  0  0  0  0  0  0  0  0  0
    1.9284    7.3564    2.6717 C   0  0  0  0  0  0  0  0  0  0  0  0
    1.7381   10.1676    2.7494 O   0  0  0  0  0  0  0  0  0  0  0  0
    1.6500   11.5935    2.7811 C   0  0  0  0  0  0  0  0  0  0  0  0
    0.5850   12.0093    3.7629 C   0  0  0  0  0  0  0  0  0  0  0  0
   -0.0350   11.1706    4.3729 O   0  0  0  0  0  0  0  0  0  0  0  0
    6.1718   11.0162   -0.0231 H   0  0  0  0  0  0  0  0  0  0  0  0
    5.5142   10.2618   -1.4951 H   0  0  0  0  0  0  0  0  0  0  0  0
    4.7217   11.6959   -0.7998 H   0  0  0  0  0  0  0  0  0  0  0  0
    3.3575   11.5188    1.1888 H   0  0  0  0  0  0  0  0  0  0  0  0
    5.1602    8.0213   -1.7836 H   0  0  0  0  0  0  0  0  0  0  0  0
    6.4616    8.5607   -0.6997 H   0  0  0  0  0  0  0  0  0  0  0  0
    6.4193    6.4591    0.5072 H   0  0  0  0  0  0  0  0  0  0  0  0
    6.4960    6.0820   -1.2333 H   0  0  0  0  0  0  0  0  0  0  0  0
    2.8378    5.7556    0.9468 H   0  0  0  0  0  0  0  0  0  0  0  0
    4.3893    5.8432    1.8098 H   0  0  0  0  0  0  0  0  0  0  0  0
    6.5401    4.3292   -1.5865 H   0  0  0  0  0  0  0  0  0  0  0  0
    5.8148    2.7109   -1.4335 H   0  0  0  0  0  0  0  0  0  0  0  0
    4.9836    3.9736   -2.3734 H   0  0  0  0  0  0  0  0  0  0  0  0
    4.4288    1.6516    0.0459 H   0  0  0  0  0  0  0  0  0  0  0  0
    3.1094   -0.1218    1.2937 H   0  0  0  0  0  0  0  0  0  0  0  0
    0.9903   -1.3735    1.2967 H   0  0  0  0  0  0  0  0  0  0  0  0
   -0.9255   -0.5574   -0.0150 H   0  0  0  0  0  0  0  0  0  0  0  0
   -0.7310    1.5158   -1.3268 H   0  0  0  0  0  0  0  0  0  0  0  0
    1.3823    2.7773   -1.3328 H   0  0  0  0  0  0  0  0  0  0  0  0
    2.4206    7.1681    3.6258 H   0  0  0  0  0  0  0  0  0  0  0  0
    0.9695    7.8439    2.8476 H   0  0  0  0  0  0  0  0  0  0  0  0
    1.7659    6.4112    2.1538 H   0  0  0  0  0  0  0  0  0  0  0  0
    2.6095   12.0101    3.0878 H   0  0  0  0  0  0  0  0  0  0  0  0
    1.3937   11.9639    1.7885 H   0  0  0  0  0  0  0  0  0  0  0  0
    0.3252   13.3114    3.9598 O   0  5  0  0  0  0  0  0  0  0  0  0
  1  2  1  0  0  0  0
  1 30  1  0  0  0  0
  1 31  1  0  0  0  0
  1 32  1  0  0  0  0
  2  7  2  0  0  0  0
  2  3  1  0  0  0  0
  3  4  2  0  0  0  0
  3 33  1  0  0  0  0
  4  5  1  0  0  0  0
  4 26  1  0  0  0  0
  5  6  2  0  0  0  0
  5 25  1  0  0  0  0
  6 12  1  0  0  0  0
  6  7  1  0  0  0  0
  7  8  1  0  0  0  0
  8  9  1  0  0  0  0
  8 34  1  0  0  0  0
  8 35  1  0  0  0  0
  9 10  1  0  0  0  0
  9 36  1  0  0  0  0
  9 37  1  0  0  0  0
 10 11  1  0  0  0  0
 10 12  1  0  0  0  0
 10 13  1  0  0  0  0
 12 38  1  0  0  0  0
 12 39  1  0  0  0  0
 13 14  1  0  0  0  0
 13 15  1  0  0  0  0
 13 16  1  0  0  0  0
 15 40  1  0  0  0  0
 15 41  1  0  0  0  0
 15 42  1  0  0  0  0
 16 17  2  0  0  0  0
 16 18  1  0  0  0  0
 18 19  1  0  0  0  0
 18 43  1  0  0  0  0
 19 24  2  0  0  0  0
 19 20  1  0  0  0  0
 20 21  2  0  0  0  0
 20 44  1  0  0  0  0
 21 22  1  0  0  0  0
 21 45  1  0  0  0  0
 22 23  2  0  0  0  0
 22 46  1  0  0  0  0
 23 24  1  0  0  0  0
 23 47  1  0  0  0  0
 24 48  1  0  0  0  0
 25 49  1  0  0  0  0
 25 50  1  0  0  0  0
 25 51  1  0  0  0  0
 26 27  1  0  0  0  0
 27 28  1  0  0  0  0
 27 52  1  0  0  0  0
 27 53  1  0  0  0  0
 28 29  2  0  0  0  0
 28 54  1  0  0  0  0
M  CHG  1  54  -1
M  END
$$$$
ZINC04226490
  -OEChem-08230709463D

 59 61  0     0  0  0  0  0  0999 V2000
   -7.3011    4.1650    0.0592 C   0  0  0  0  0  0  0  0  0  0  0  0
   -6.0282    3.3583    0.0488 C   0  0  0  0  0  0  0  0  0  0  0  0
   -6.1086    1.9733    0.0417 C   0  0  0  0  0  0  0  0  0  0  0  0
   -4.9452    1.2186    0.0321 C   0  0  0  0  0  0  0  0  0  0  0  0
   -3.7074    1.9089    0.0300 C   0  0  0  0  0  0  0  0  0  0  0  0
   -2.4924    1.2175    0.0148 C   0  0  0  0  0  0  0  0  0  0  0  0
   -1.3020    1.9310    0.0187 C   0  0  0  0  0  0  0  0  0  0  0  0
   -1.3171    3.3375    0.0264 C   0  0  0  0  0  0  0  0  0  0  0  0
   -2.4892    4.0212    0.0357 C   0  0  0  0  0  0  0  0  0  0  0  0
   -3.7131    3.3255    0.0377 C   0  0  0  0  0  0  0  0  0  0  0  0
   -0.0144    1.2108    0.0087 C   0  0  0  0  0  0  0  0  0  0  0  0
    0.0021   -0.0041    0.0020 O   0  0  0  0  0  0  0  0  0  0  0  0
   -4.9914   -0.1652    0.0243 N   0  0  0  0  0  0  0  0  0  0  0  0
   -6.2839   -0.8550    0.0267 C   0  0  0  0  0  0  0  0  0  0  0  0
   -6.7860   -0.9925    1.4654 C   0  0  0  0  0  0  0  0  0  0  0  0
   -8.0425   -0.1395    1.6508 C   0  0  0  0  0  0  0  0  0  0  0  0
   -9.1674   -1.0056    2.2211 C   0  0  0  0  0  0  0  0  0  0  0  0
  -10.4085   -0.8777    1.3356 C   0  0  0  0  0  0  0  0  0  0  0  0
  -10.8841   -2.2712    0.9197 C   0  0  0  0  0  0  0  0  0  0  0  0
  -11.0159   -2.3315   -0.6034 C   0  0  0  0  0  0  0  0  0  0  0  0
  -10.2194   -3.5236   -1.1375 C   0  0  0  0  0  0  0  0  0  0  0  0
   -9.2572   -3.0470   -2.2275 C   0  0  0  0  0  0  0  0  0  0  0  0
   -7.8380   -3.5105   -1.8932 C   0  0  0  0  0  0  0  0  0  0  0  0
   -6.8912   -2.3088   -1.9124 C   0  0  0  0  0  0  0  0  0  0  0  0
   -6.1213   -2.2450   -0.5917 C   0  0  0  0  0  0  0  0  0  0  0  0
   -7.6031    4.3539    1.0893 H   0  0  0  0  0  0  0  0  0  0  0  0
   -7.1339    5.1140   -0.4503 H   0  0  0  0  0  0  0  0  0  0  0  0
   -8.0868    3.6106   -0.4540 H   0  0  0  0  0  0  0  0  0  0  0  0
   -7.0721    1.4855    0.0439 H   0  0  0  0  0  0  0  0  0  0  0  0
   -2.4802    0.1376    0.0044 H   0  0  0  0  0  0  0  0  0  0  0  0
   -0.3835    3.8805    0.0246 H   0  0  0  0  0  0  0  0  0  0  0  0
   -2.4832    5.1012    0.0412 H   0  0  0  0  0  0  0  0  0  0  0  0
   -4.1680   -0.6780    0.0174 H   0  0  0  0  0  0  0  0  0  0  0  0
   -7.0036   -0.2800   -0.5559 H   0  0  0  0  0  0  0  0  0  0  0  0
   -7.0224   -2.0368    1.6695 H   0  0  0  0  0  0  0  0  0  0  0  0
   -6.0121   -0.6538    2.1542 H   0  0  0  0  0  0  0  0  0  0  0  0
   -8.3503    0.2680    0.6878 H   0  0  0  0  0  0  0  0  0  0  0  0
   -7.8285    0.6778    2.3395 H   0  0  0  0  0  0  0  0  0  0  0  0
   -9.4058   -0.6726    3.2312 H   0  0  0  0  0  0  0  0  0  0  0  0
   -8.8461   -2.0469    2.2481 H   0  0  0  0  0  0  0  0  0  0  0  0
  -10.1622   -0.2974    0.4464 H   0  0  0  0  0  0  0  0  0  0  0  0
  -11.2003   -0.3742    1.8903 H   0  0  0  0  0  0  0  0  0  0  0  0
  -11.8523   -2.4761    1.3766 H   0  0  0  0  0  0  0  0  0  0  0  0
  -10.1608   -3.0160    1.2515 H   0  0  0  0  0  0  0  0  0  0  0  0
  -10.6274   -1.4107   -1.0385 H   0  0  0  0  0  0  0  0  0  0  0  0
  -12.0658   -2.4460   -0.8730 H   0  0  0  0  0  0  0  0  0  0  0  0
  -10.9050   -4.2610   -1.5551 H   0  0  0  0  0  0  0  0  0  0  0  0
   -9.6517   -3.9751   -0.3238 H   0  0  0  0  0  0  0  0  0  0  0  0
   -9.2806   -1.9586   -2.2822 H   0  0  0  0  0  0  0  0  0  0  0  0
   -9.5596   -3.4656   -3.1874 H   0  0  0  0  0  0  0  0  0  0  0  0
   -7.5113   -4.2423   -2.6321 H   0  0  0  0  0  0  0  0  0  0  0  0
   -7.8280   -3.9651   -0.9026 H   0  0  0  0  0  0  0  0  0  0  0  0
   -7.4686   -1.3933   -2.0409 H   0  0  0  0  0  0  0  0  0  0  0  0
   -6.1877   -2.4136   -2.7384 H   0  0  0  0  0  0  0  0  0  0  0  0
   -5.0648   -2.4388   -0.7773 H   0  0  0  0  0  0  0  0  0  0  0  0
   -6.5134   -2.9959    0.0941 H   0  0  0  0  0  0  0  0  0  0  0  0
   -4.8745    4.0669    0.0468 N   0  3  0  0  0  0  0  0  0  0  0  0
   -4.8656    5.0936    0.0517 H   0  0  0  0  0  0  0  0  0  0  0  0
    1.1432    1.9003    0.0013 O   0  5  0  0  0  0  0  0  0  0  0  0
  1  2  1  0  0  0  0
  1 26  1  0  0  0  0
  1 27  1  0  0  0  0
  1 28  1  0  0  0  0
  2  3  2  0  0  0  0
  2 57  1  0  0  0  0
  3  4  1  0  0  0  0
  3 29  1  0  0  0  0
  4  5  2  0  0  0  0
  4 13  1  0  0  0  0
  5 10  1  0  0  0  0
  5  6  1  0  0  0  0
  6  7  2  0  0  0  0
  6 30  1  0  0  0  0
  7  8  1  0  0  0  0
  7 11  1  0  0  0  0
  8  9  2  0  0  0  0
  8 31  1  0  0  0  0
  9 10  1  0  0  0  0
  9 32  1  0  0  0  0
 10 57  2  0  0  0  0
 11 12  2  0  0  0  0
 11 59  1  0  0  0  0
 13 14  1  0  0  0  0
 13 33  1  0  0  0  0
 14 25  1  0  0  0  0
 14 15  1  0  0  0  0
 14 34  1  0  0  0  0
 15 16  1  0  0  0  0
 15 35  1  0  0  0  0
 15 36  1  0  0  0  0
 16 17  1  0  0  0  0
 16 37  1  0  0  0  0
 16 38  1  0  0  0  0
 17 18  1  0  0  0  0
 17 39  1  0  0  0  0
 17 40  1  0  0  0  0
 18 19  1  0  0  0  0
 18 41  1  0  0  0  0
 18 42  1  0  0  0  0
 19 20  1  0  0  0  0
 19 43  1  0  0  0  0
 19 44  1  0  0  0  0
 20 21  1  0  0  0  0
 20 45  1  0  0  0  0
 20 46  1  0  0  0  0
 21 22  1  0  0  0  0
 21 47  1  0  0  0  0
 21 48  1  0  0  0  0
 22 23  1  0  0  0  0
 22 49  1  0  0  0  0
 22 50  1  0  0  0  0
 23 24  1  0  0  0  0
 23 51  1  0  0  0  0
 23 52  1  0  0  0  0
 24 25  1  0  0  0  0
 24 53  1  0  0  0  0
 24 54  1  0  0  0  0
 25 55  1  0  0  0  0
 25 56  1  0  0  0  0
 57 58  1  0  0  0  0
M  CHG  2  57   1  59  -1
M  END
$$$$
ZINC04226658
  -OEChem-08230709463D

 62 65  0     0  0  0  0  0  0999 V2000
    5.3952    2.0968    2.5607 C   0  0  0  0  0  0  0  0  0  0  0  0
    4.5593    1.3259    1.8198 C   0  0  0  0  0  0  0  0  0  0  0  0
    3.5940    1.9262    0.9894 C   0  0  0  0  0  0  0  0  0  0  0  0
    3.5093    3.3394    0.9329 C   0  0  0  0  0  0  0  0  0  0  0  0
    4.3802    4.1211    1.6966 C   0  0  0  0  0  0  0  0  0  0  0  0
    5.3223    3.5000    2.5054 C   0  0  0  0  0  0  0  0  0  0  0  0
    6.2470    4.3159    3.3153 C   0  0  0  0  0  0  0  0  0  0  0  0
    6.1829    5.5284    3.2736 O   0  0  0  0  0  0  0  0  0  0  0  0
    2.5334    3.9298    0.0933 C   0  0  0  0  0  0  0  0  0  0  0  0
    1.7053    3.0897   -0.6377 C   0  0  0  0  0  0  0  0  0  0  0  0
    1.8485    1.7130   -0.5304 C   0  0  0  0  0  0  0  0  0  0  0  0
    2.7627    1.1811    0.2577 N   0  0  0  0  0  0  0  0  0  0  0  0
    0.8309    1.0301   -1.4238 C   0  0  0  0  0  0  0  0  0  0  0  0
    0.3587    2.1199   -2.4085 C   0  0  0  0  0  0  0  0  0  0  0  0
    0.5894    3.4174   -1.6054 C   0  0  0  0  0  0  0  0  0  0  0  0
    2.4093    5.3060    0.0041 N   0  0  0  0  0  0  0  0  0  0  0  0
    1.6404    5.8398    1.1362 C   0  0  0  0  0  0  0  0  0  0  0  0
    0.1485    5.8119    0.7978 C   0  0  0  0  0  0  0  0  0  0  0  0
   -0.5619    4.8069    1.7068 C   0  0  0  0  0  0  0  0  0  0  0  0
   -1.7407    5.4919    2.4013 C   0  0  0  0  0  0  0  0  0  0  0  0
   -1.6318    5.2854    3.9133 C   0  0  0  0  0  0  0  0  0  0  0  0
   -1.7046    6.6407    4.6197 C   0  0  0  0  0  0  0  0  0  0  0  0
   -0.4994    6.7967    5.5492 C   0  0  0  0  0  0  0  0  0  0  0  0
    0.2206    8.1095    5.2347 C   0  0  0  0  0  0  0  0  0  0  0  0
    1.7028    7.8295    4.9786 C   0  0  0  0  0  0  0  0  0  0  0  0
    2.1099    8.4296    3.6313 C   0  0  0  0  0  0  0  0  0  0  0  0
    2.7728    7.3511    2.7721 C   0  0  0  0  0  0  0  0  0  0  0  0
    2.0738    7.2808    1.4129 C   0  0  0  0  0  0  0  0  0  0  0  0
    6.1291    1.6262    3.1980 H   0  0  0  0  0  0  0  0  0  0  0  0
    4.6318    0.2495    1.8707 H   0  0  0  0  0  0  0  0  0  0  0  0
    4.3207    5.1988    1.6583 H   0  0  0  0  0  0  0  0  0  0  0  0
    1.2960    0.2068   -1.9658 H   0  0  0  0  0  0  0  0  0  0  0  0
   -0.0080    0.6654   -0.8309 H   0  0  0  0  0  0  0  0  0  0  0  0
    0.9650    2.1122   -3.3143 H   0  0  0  0  0  0  0  0  0  0  0  0
   -0.6975    1.9948   -2.6472 H   0  0  0  0  0  0  0  0  0  0  0  0
   -0.3147    3.6915   -1.0617 H   0  0  0  0  0  0  0  0  0  0  0  0
    0.8912    4.2259   -2.2712 H   0  0  0  0  0  0  0  0  0  0  0  0
    3.3145    5.7473   -0.0583 H   0  0  0  0  0  0  0  0  0  0  0  0
    1.8239    5.2291    2.0203 H   0  0  0  0  0  0  0  0  0  0  0  0
   -0.2772    6.8037    0.9501 H   0  0  0  0  0  0  0  0  0  0  0  0
    0.0175    5.5162   -0.2431 H   0  0  0  0  0  0  0  0  0  0  0  0
    0.1374    4.4381    2.4571 H   0  0  0  0  0  0  0  0  0  0  0  0
   -0.9276    3.9719    1.1093 H   0  0  0  0  0  0  0  0  0  0  0  0
   -2.6748    5.0602    2.0419 H   0  0  0  0  0  0  0  0  0  0  0  0
   -1.7239    6.5587    2.1781 H   0  0  0  0  0  0  0  0  0  0  0  0
   -0.6819    4.8046    4.1469 H   0  0  0  0  0  0  0  0  0  0  0  0
   -2.4522    4.6537    4.2538 H   0  0  0  0  0  0  0  0  0  0  0  0
   -2.6234    6.6972    5.2034 H   0  0  0  0  0  0  0  0  0  0  0  0
   -1.6963    7.4384    3.8770 H   0  0  0  0  0  0  0  0  0  0  0  0
    0.1853    5.9619    5.3997 H   0  0  0  0  0  0  0  0  0  0  0  0
   -0.8385    6.8075    6.5851 H   0  0  0  0  0  0  0  0  0  0  0  0
    0.1203    8.7905    6.0798 H   0  0  0  0  0  0  0  0  0  0  0  0
   -0.2219    8.5632    4.3479 H   0  0  0  0  0  0  0  0  0  0  0  0
    1.8718    6.7528    4.9627 H   0  0  0  0  0  0  0  0  0  0  0  0
    2.2999    8.2793    5.7719 H   0  0  0  0  0  0  0  0  0  0  0  0
    2.8125    9.2467    3.7949 H   0  0  0  0  0  0  0  0  0  0  0  0
    1.2248    8.8084    3.1201 H   0  0  0  0  0  0  0  0  0  0  0  0
    2.6912    6.3865    3.2729 H   0  0  0  0  0  0  0  0  0  0  0  0
    3.8246    7.5975    2.6273 H   0  0  0  0  0  0  0  0  0  0  0  0
    2.7611    7.6095    0.6334 H   0  0  0  0  0  0  0  0  0  0  0  0
    1.1972    7.9286    1.4212 H   0  0  0  0  0  0  0  0  0  0  0  0
    7.1625    3.7162    4.1013 O   0  5  0  0  0  0  0  0  0  0  0  0
  1  6  2  0  0  0  0
  1  2  1  0  0  0  0
  1 29  1  0  0  0  0
  2  3  2  0  0  0  0
  2 30  1  0  0  0  0
  3 12  1  0  0  0  0
  3  4  1  0  0  0  0
  4  5  2  0  0  0  0
  4  9  1  0  0  0  0
  5  6  1  0  0  0  0
  5 31  1  0  0  0  0
  6  7  1  0  0  0  0
  7  8  2  0  0  0  0
  7 62  1  0  0  0  0
  9 10  2  0  0  0  0
  9 16  1  0  0  0  0
 10 15  1  0  0  0  0
 10 11  1  0  0  0  0
 11 12  2  0  0  0  0
 11 13  1  0  0  0  0
 13 14  1  0  0  0  0
 13 32  1  0  0  0  0
 13 33  1  0  0  0  0
 14 15  1  0  0  0  0
 14 34  1  0  0  0  0
 14 35  1  0  0  0  0
 15 36  1  0  0  0  0
 15 37  1  0  0  0  0
 16 17  1  0  0  0  0
 16 38  1  0  0  0  0
 17 28  1  0  0  0  0
 17 18  1  0  0  0  0
 17 39  1  0  0  0  0
 18 19  1  0  0  0  0
 18 40  1  0  0  0  0
 18 41  1  0  0  0  0
 19 20  1  0  0  0  0
 19 42  1  0  0  0  0
 19 43  1  0  0  0  0
 20 21  1  0  0  0  0
 20 44  1  0  0  0  0
 20 45  1  0  0  0  0
 21 22  1  0  0  0  0
 21 46  1  0  0  0  0
 21 47  1  0  0  0  0
 22 23  1  0  0  0  0
 22 48  1  0  0  0  0
 22 49  1  0  0  0  0
 23 24  1  0  0  0  0
 23 50  1  0  0  0  0
 23 51  1  0  0  0  0
 24 25  1  0  0  0  0
 24 52  1  0  0  0  0
 24 53  1  0  0  0  0
 25 26  1  0  0  0  0
 25 54  1  0  0  0  0
 25 55  1  0  0  0  0
 26 27  1  0  0  0  0
 26 56  1  0  0  0  0
 26 57  1  0  0  0  0
 27 28  1  0  0  0  0
 27 58  1  0  0  0  0
 27 59  1  0  0  0  0
 28 60  1  0  0  0  0
 28 61  1  0  0  0  0
M  CHG  1  62  -1
M  END
$$$$
ZINC04237781
  -OEChem-08230709463D

 47 49  0     0  0  0  0  0  0999 V2000
    1.2206   -2.1893   -0.0204 C   0  0  0  0  0  0  0  0  0  0  0  0
    1.2077   -0.6823   -0.0127 C   0  0  0  0  0  0  0  0  0  0  0  0
    2.3637    0.0149    0.2913 C   0  0  0  0  0  0  0  0  0  0  0  0
    2.3586    1.3943    0.2997 C   0  0  0  0  0  0  0  0  0  0  0  0
    1.1839    2.0866    0.0020 C   0  0  0  0  0  0  0  0  0  0  0  0
    0.0218    1.3776   -0.3042 C   0  0  0  0  0  0  0  0  0  0  0  0
    0.0405   -0.0021   -0.3099 C   0  0  0  0  0  0  0  0  0  0  0  0
   -1.2137   -0.7696   -0.6403 C   0  0  0  0  0  0  0  0  0  0  0  0
    1.1712    3.5654    0.0095 C   0  0  0  0  0  0  0  0  0  0  0  0
    0.0628    4.3494    0.0179 C   0  0  0  0  0  0  0  0  0  0  0  0
    0.5059    5.6980    0.0257 C   0  0  0  0  0  0  0  0  0  0  0  0
    1.8853    5.6687    0.0130 C   0  0  0  0  0  0  0  0  0  0  0  0
    2.2801    4.3786    0.0033 N   0  0  0  0  0  0  0  0  0  0  0  0
    3.6110    3.9369   -0.0106 C   0  0  0  0  0  0  0  0  0  0  0  0
    4.2585    3.7176   -1.2177 C   0  0  0  0  0  0  0  0  0  0  0  0
    5.5717    3.2879   -1.2288 C   0  0  0  0  0  0  0  0  0  0  0  0
    6.2399    3.0643   -0.0388 C   0  0  0  0  0  0  0  0  0  0  0  0
    5.5996    3.2750    1.1678 C   0  0  0  0  0  0  0  0  0  0  0  0
    4.2844    3.7115    1.1877 C   0  0  0  0  0  0  0  0  0  0  0  0
    3.6531    3.9188    2.3737 O   0  0  0  0  0  0  0  0  0  0  0  0
    4.4058    3.6672    3.5620 C   0  0  0  0  0  0  0  0  0  0  0  0
    6.2631    3.0603   -2.5177 N   0  3  0  0  0  0  0  0  0  0  0  0
    7.4190    2.6766   -2.5293 O   0  0  0  0  0  0  0  0  0  0  0  0
    5.6761    3.2567   -3.5667 O   0  5  0  0  0  0  0  0  0  0  0  0
    2.7943    6.8706    0.0104 C   0  0  0  0  0  0  0  0  0  0  0  0
   -0.3443    6.8988    0.0392 C   0  0  0  0  0  0  0  0  0  0  0  0
    0.1637    8.0031    0.0398 O   0  0  0  0  0  0  0  0  0  0  0  0
    1.4814   -2.5453   -1.0171 H   0  0  0  0  0  0  0  0  0  0  0  0
    1.9565   -2.5500    0.6983 H   0  0  0  0  0  0  0  0  0  0  0  0
    0.2334   -2.5625    0.2520 H   0  0  0  0  0  0  0  0  0  0  0  0
    3.2718   -0.5220    0.5222 H   0  0  0  0  0  0  0  0  0  0  0  0
    3.2616    1.9374    0.5364 H   0  0  0  0  0  0  0  0  0  0  0  0
   -0.8891    1.9075   -0.5404 H   0  0  0  0  0  0  0  0  0  0  0  0
   -1.2586   -0.9470   -1.7149 H   0  0  0  0  0  0  0  0  0  0  0  0
   -1.2045   -1.7244   -0.1145 H   0  0  0  0  0  0  0  0  0  0  0  0
   -2.0850   -0.1926   -0.3306 H   0  0  0  0  0  0  0  0  0  0  0  0
   -0.9627    4.0107    0.0201 H   0  0  0  0  0  0  0  0  0  0  0  0
    3.7377    3.8868   -2.1485 H   0  0  0  0  0  0  0  0  0  0  0  0
    7.2650    2.7244   -0.0524 H   0  0  0  0  0  0  0  0  0  0  0  0
    6.1242    3.0991    2.0954 H   0  0  0  0  0  0  0  0  0  0  0  0
    4.7228    2.6245    3.5773 H   0  0  0  0  0  0  0  0  0  0  0  0
    5.2830    4.3140    3.5802 H   0  0  0  0  0  0  0  0  0  0  0  0
    3.7857    3.8713    4.4349 H   0  0  0  0  0  0  0  0  0  0  0  0
    3.0041    7.1653   -1.0179 H   0  0  0  0  0  0  0  0  0  0  0  0
    2.3084    7.6948    0.5326 H   0  0  0  0  0  0  0  0  0  0  0  0
    3.7279    6.6212    0.5145 H   0  0  0  0  0  0  0  0  0  0  0  0
   -1.6863    6.7743    0.0508 O   0  5  0  0  0  0  0  0  0  0  0  0
  1  2  1  0  0  0  0
  1 28  1  0  0  0  0
  1 29  1  0  0  0  0
  1 30  1  0  0  0  0
  2  7  2  0  0  0  0
  2  3  1  0  0  0  0
  3  4  2  0  0  0  0
  3 31  1  0  0  0  0
  4  5  1  0  0  0  0
  4 32  1  0  0  0  0
  5  6  2  0  0  0  0
  5  9  1  0  0  0  0
  6  7  1  0  0  0  0
  6 33  1  0  0  0  0
  7  8  1  0  0  0  0
  8 34  1  0  0  0  0
  8 35  1  0  0  0  0
  8 36  1  0  0  0  0
  9 13  1  0  0  0  0
  9 10  2  0  0  0  0
 10 11  1  0  0  0  0
 10 37  1  0  0  0  0
 11 12  2  0  0  0  0
 11 26  1  0  0  0  0
 12 13  1  0  0  0  0
 12 25  1  0  0  0  0
 13 14  1  0  0  0  0
 14 19  2  0  0  0  0
 14 15  1  0  0  0  0
 15 16  2  0  0  0  0
 15 38  1  0  0  0  0
 16 17  1  0  0  0  0
 16 22  1  0  0  0  0
 17 18  2  0  0  0  0
 17 39  1  0  0  0  0
 18 19  1  0  0  0  0
 18 40  1  0  0  0  0
 19 20  1  0  0  0  0
 20 21  1  0  0  0  0
 21 41  1  0  0  0  0
 21 42  1  0  0  0  0
 21 43  1  0  0  0  0
 22 23  2  0  0  0  0
 22 24  1  0  0  0  0
 25 44  1  0  0  0  0
 25 45  1  0  0  0  0
 25 46  1  0  0  0  0
 26 27  2  0  0  0  0
 26 47  1  0  0  0  0
M  CHG  3  22   1  24  -1  47  -1
M  END
$$$$
ZINC04240742
  -OEChem-08230709463D

 52 53  0     0  0  0  0  0  0999 V2000
    2.1392    7.3777    6.1386 C   0  0  0  0  0  0  0  0  0  0  0  0
    3.4375    6.7612    5.6139 C   0  0  0  0  0  0  0  0  0  0  0  0
    4.1511    6.0295    6.7525 C   0  0  0  0  0  0  0  0  0  0  0  0
    4.3444    7.8673    5.0710 C   0  0  0  0  0  0  0  0  0  0  0  0
    3.1316    5.8206    4.5509 O   0  0  0  0  0  0  0  0  0  0  0  0
    2.4987    6.3079    3.4670 C   0  0  0  0  0  0  0  0  0  0  0  0
    2.2099    7.4868    3.4110 O   0  0  0  0  0  0  0  0  0  0  0  0
    2.1856    5.4880    2.4442 N   0  0  0  0  0  0  0  0  0  0  0  0
    1.4950    6.0049    1.2548 C   0  0  0  0  0  0  0  0  0  0  0  0
    2.3006    5.6191    0.0103 C   0  0  0  0  0  0  0  0  0  0  0  0
    2.5220    4.1048    0.0000 C   0  0  0  0  0  0  0  0  0  0  0  0
    3.3219    3.6961    1.2391 C   0  0  0  0  0  0  0  0  0  0  0  0
    2.5279    4.0602    2.4975 C   0  0  0  0  0  0  0  0  0  0  0  0
    3.2852    3.7174   -1.2403 C   0  0  0  0  0  0  0  0  0  0  0  0
    3.9969    4.5252   -1.7887 O   0  0  0  0  0  0  0  0  0  0  0  0
    1.2258    3.4220    0.0087 N   0  0  0  0  0  0  0  0  0  0  0  0
    1.1736    2.0753    0.0020 C   0  0  0  0  0  0  0  0  0  0  0  0
    2.2015    1.4274   -0.0113 O   0  0  0  0  0  0  0  0  0  0  0  0
   -0.0176    1.4478    0.0100 O   0  0  0  0  0  0  0  0  0  0  0  0
    0.0021   -0.0041    0.0020 C   0  0  0  0  0  0  0  0  0  0  0  0
   -1.4117   -0.5257    0.0127 C   0  0  0  0  0  0  0  0  0  0  0  0
   -2.0468   -0.7767    1.2146 C   0  0  0  0  0  0  0  0  0  0  0  0
   -3.3453   -1.2506    1.2245 C   0  0  0  0  0  0  0  0  0  0  0  0
   -4.0053   -1.4830    0.0323 C   0  0  0  0  0  0  0  0  0  0  0  0
   -3.3683   -1.2374   -1.1696 C   0  0  0  0  0  0  0  0  0  0  0  0
   -2.0716   -0.7585   -1.1795 C   0  0  0  0  0  0  0  0  0  0  0  0
    1.4931    6.5897    6.5254 H   0  0  0  0  0  0  0  0  0  0  0  0
    2.3688    8.0838    6.9366 H   0  0  0  0  0  0  0  0  0  0  0  0
    1.6308    7.8990    5.3274 H   0  0  0  0  0  0  0  0  0  0  0  0
    5.0761    5.5903    6.3788 H   0  0  0  0  0  0  0  0  0  0  0  0
    4.3807    6.7356    7.5506 H   0  0  0  0  0  0  0  0  0  0  0  0
    3.5050    5.2415    7.1393 H   0  0  0  0  0  0  0  0  0  0  0  0
    3.8360    8.3886    4.2598 H   0  0  0  0  0  0  0  0  0  0  0  0
    4.5740    8.5734    5.8690 H   0  0  0  0  0  0  0  0  0  0  0  0
    5.2693    7.4281    4.6972 H   0  0  0  0  0  0  0  0  0  0  0  0
    1.4194    7.0904    1.3191 H   0  0  0  0  0  0  0  0  0  0  0  0
    0.4965    5.5722    1.1925 H   0  0  0  0  0  0  0  0  0  0  0  0
    3.2646    6.1276    0.0288 H   0  0  0  0  0  0  0  0  0  0  0  0
    1.7511    5.9125   -0.8842 H   0  0  0  0  0  0  0  0  0  0  0  0
    3.4993    2.6208    1.2192 H   0  0  0  0  0  0  0  0  0  0  0  0
    4.2762    4.2227    1.2460 H   0  0  0  0  0  0  0  0  0  0  0  0
    3.1337    3.8624    3.3818 H   0  0  0  0  0  0  0  0  0  0  0  0
    1.6145    3.4668    2.5403 H   0  0  0  0  0  0  0  0  0  0  0  0
    0.4053    3.9392    0.0193 H   0  0  0  0  0  0  0  0  0  0  0  0
    0.5123   -0.3556   -0.8948 H   0  0  0  0  0  0  0  0  0  0  0  0
    0.5293   -0.3651    0.8851 H   0  0  0  0  0  0  0  0  0  0  0  0
   -1.5297   -0.5990    2.1460 H   0  0  0  0  0  0  0  0  0  0  0  0
   -3.8429   -1.4429    2.1636 H   0  0  0  0  0  0  0  0  0  0  0  0
   -5.0186   -1.8568    0.0400 H   0  0  0  0  0  0  0  0  0  0  0  0
   -3.8838   -1.4192   -2.1011 H   0  0  0  0  0  0  0  0  0  0  0  0
   -1.5739   -0.5666   -2.1185 H   0  0  0  0  0  0  0  0  0  0  0  0
    3.1743    2.4748   -1.7358 O   0  5  0  0  0  0  0  0  0  0  0  0
  1  2  1  0  0  0  0
  1 27  1  0  0  0  0
  1 28  1  0  0  0  0
  1 29  1  0  0  0  0
  2  3  1  0  0  0  0
  2  4  1  0  0  0  0
  2  5  1  0  0  0  0
  3 30  1  0  0  0  0
  3 31  1  0  0  0  0
  3 32  1  0  0  0  0
  4 33  1  0  0  0  0
  4 34  1  0  0  0  0
  4 35  1  0  0  0  0
  5  6  1  0  0  0  0
  6  7  2  0  0  0  0
  6  8  1  0  0  0  0
  8 13  1  0  0  0  0
  8  9  1  0  0  0  0
  9 10  1  0  0  0  0
  9 36  1  0  0  0  0
  9 37  1  0  0  0  0
 10 11  1  0  0  0  0
 10 38  1  0  0  0  0
 10 39  1  0  0  0  0
 11 12  1  0  0  0  0
 11 14  1  0  0  0  0
 11 16  1  0  0  0  0
 12 13  1  0  0  0  0
 12 40  1  0  0  0  0
 12 41  1  0  0  0  0
 13 42  1  0  0  0  0
 13 43  1  0  0  0  0
 14 15  2  0  0  0  0
 14 52  1  0  0  0  0
 16 17  1  0  0  0  0
 16 44  1  0  0  0  0
 17 18  2  0  0  0  0
 17 19  1  0  0  0  0
 19 20  1  0  0  0  0
 20 21  1  0  0  0  0
 20 45  1  0  0  0  0
 20 46  1  0  0  0  0
 21 26  2  0  0  0  0
 21 22  1  0  0  0  0
 22 23  2  0  0  0  0
 22 47  1  0  0  0  0
 23 24  1  0  0  0  0
 23 48  1  0  0  0  0
 24 25  2  0  0  0  0
 24 49  1  0  0  0  0
 25 26  1  0  0  0  0
 25 50  1  0  0  0  0
 26 51  1  0  0  0  0
M  CHG  1  52  -1
M  END
$$$$
ZINC04241506
  -OEChem-08230709463D

 56 57  0     1  0  0  0  0  0999 V2000
    3.6318    8.7494   -4.6875 C   0  0  0  0  0  0  0  0  0  0  0  0
    2.2702    8.0523   -4.6567 C   0  0  0  0  0  0  0  0  0  0  0  0
    1.8325    7.7246   -6.0856 C   0  0  0  0  0  0  0  0  0  0  0  0
    1.2386    8.9765   -4.0066 C   0  0  0  0  0  0  0  0  0  0  0  0
    2.3762    6.7780   -3.8591 C   0  0  0  0  0  0  0  0  0  0  0  0
    2.7584    6.8234   -2.5314 C   0  0  0  0  0  0  0  0  0  0  0  0
    2.8552    5.6546   -1.7997 C   0  0  0  0  0  0  0  0  0  0  0  0
    2.5695    4.4405   -2.3955 C   0  0  0  0  0  0  0  0  0  0  0  0
    2.1925    4.3946   -3.7247 C   0  0  0  0  0  0  0  0  0  0  0  0
    2.0919    5.5637   -4.4553 C   0  0  0  0  0  0  0  0  0  0  0  0
    2.6750    3.1663   -1.5978 C   0  0  0  0  0  0  0  0  0  0  0  0
    1.3293    2.8670   -0.9343 C   0  0  2  0  0  0  0  0  0  0  0  0
    0.9624    3.7371   -0.3899 H   0  0  0  0  0  0  0  0  0  0  0  0
    1.4312    1.6304   -0.0029 C   0  0  0  0  0  0  0  0  0  0  0  0
   -0.0127    1.0858    0.0080 C   0  0  2  0  0  0  0  0  0  0  0  0
    0.0021   -0.0041    0.0020 H   0  0  0  0  0  0  0  0  0  0  0  0
   -0.6761    1.5836   -1.2060 N   0  0  0  0  0  0  0  0  0  0  0  0
    0.2906    2.3855   -1.9779 C   0  0  0  0  0  0  0  0  0  0  0  0
   -1.9558    1.3457   -1.5555 C   0  0  0  0  0  0  0  0  0  0  0  0
   -2.6650    0.6669   -0.8395 O   0  0  0  0  0  0  0  0  0  0  0  0
   -2.4484    1.8603   -2.6980 O   0  0  0  0  0  0  0  0  0  0  0  0
   -3.8348    1.5631   -3.0109 C   0  0  0  0  0  0  0  0  0  0  0  0
   -4.7354    2.0996   -1.8965 C   0  0  0  0  0  0  0  0  0  0  0  0
   -4.2123    2.2279   -4.3362 C   0  0  0  0  0  0  0  0  0  0  0  0
   -4.0175    0.0487   -3.1297 C   0  0  0  0  0  0  0  0  0  0  0  0
   -0.7382    1.5816    1.2323 C   0  0  0  0  0  0  0  0  0  0  0  0
   -1.4905    2.5234    1.1487 O   0  0  0  0  0  0  0  0  0  0  0  0
    4.3667    8.0910   -5.1507 H   0  0  0  0  0  0  0  0  0  0  0  0
    3.5551    9.6711   -5.2644 H   0  0  0  0  0  0  0  0  0  0  0  0
    3.9436    8.9829   -3.6695 H   0  0  0  0  0  0  0  0  0  0  0  0
    0.8625    7.2279   -6.0636 H   0  0  0  0  0  0  0  0  0  0  0  0
    1.7558    8.6462   -6.6625 H   0  0  0  0  0  0  0  0  0  0  0  0
    2.5674    7.0662   -6.5488 H   0  0  0  0  0  0  0  0  0  0  0  0
    1.5505    9.2099   -2.9885 H   0  0  0  0  0  0  0  0  0  0  0  0
    1.1619    9.8981   -4.5834 H   0  0  0  0  0  0  0  0  0  0  0  0
    0.2686    8.4798   -3.9846 H   0  0  0  0  0  0  0  0  0  0  0  0
    2.9809    7.7721   -2.0657 H   0  0  0  0  0  0  0  0  0  0  0  0
    3.1537    5.6901   -0.7624 H   0  0  0  0  0  0  0  0  0  0  0  0
    1.9735    3.4456   -4.1914 H   0  0  0  0  0  0  0  0  0  0  0  0
    1.7937    5.5282   -5.4928 H   0  0  0  0  0  0  0  0  0  0  0  0
    3.4410    3.2802   -0.8307 H   0  0  0  0  0  0  0  0  0  0  0  0
    2.9442    2.3439   -2.2607 H   0  0  0  0  0  0  0  0  0  0  0  0
    1.7390    1.9271    0.9998 H   0  0  0  0  0  0  0  0  0  0  0  0
    2.1192    0.8910   -0.4129 H   0  0  0  0  0  0  0  0  0  0  0  0
   -0.2070    3.2385   -2.4393 H   0  0  0  0  0  0  0  0  0  0  0  0
    0.7734    1.7719   -2.7385 H   0  0  0  0  0  0  0  0  0  0  0  0
   -4.6053    3.1785   -1.8119 H   0  0  0  0  0  0  0  0  0  0  0  0
   -5.7762    1.8765   -2.1314 H   0  0  0  0  0  0  0  0  0  0  0  0
   -4.4665    1.6260   -0.9523 H   0  0  0  0  0  0  0  0  0  0  0  0
   -3.5706    1.8457   -5.1301 H   0  0  0  0  0  0  0  0  0  0  0  0
   -5.2530    2.0048   -4.5711 H   0  0  0  0  0  0  0  0  0  0  0  0
   -4.0821    3.3068   -4.2516 H   0  0  0  0  0  0  0  0  0  0  0  0
   -3.7486   -0.4249   -2.1855 H   0  0  0  0  0  0  0  0  0  0  0  0
   -5.0582   -0.1744   -3.3646 H   0  0  0  0  0  0  0  0  0  0  0  0
   -3.3758   -0.3335   -3.9236 H   0  0  0  0  0  0  0  0  0  0  0  0
   -0.5487    0.9769    2.4156 O   0  5  0  0  0  0  0  0  0  0  0  0
  1  2  1  0  0  0  0
  1 28  1  0  0  0  0
  1 29  1  0  0  0  0
  1 30  1  0  0  0  0
  2  3  1  0  0  0  0
  2  4  1  0  0  0  0
  2  5  1  0  0  0  0
  3 31  1  0  0  0  0
  3 32  1  0  0  0  0
  3 33  1  0  0  0  0
  4 34  1  0  0  0  0
  4 35  1  0  0  0  0
  4 36  1  0  0  0  0
  5 10  2  0  0  0  0
  5  6  1  0  0  0  0
  6  7  2  0  0  0  0
  6 37  1  0  0  0  0
  7  8  1  0  0  0  0
  7 38  1  0  0  0  0
  8  9  2  0  0  0  0
  8 11  1  0  0  0  0
  9 10  1  0  0  0  0
  9 39  1  0  0  0  0
 10 40  1  0  0  0  0
 11 12  1  0  0  0  0
 11 41  1  0  0  0  0
 11 42  1  0  0  0  0
 12 13  1  0  0  0  0
 12 18  1  0  0  0  0
 12 14  1  0  0  0  0
 14 15  1  0  0  0  0
 14 43  1  0  0  0  0
 14 44  1  0  0  0  0
 15 16  1  0  0  0  0
 15 17  1  0  0  0  0
 15 26  1  0  0  0  0
 17 18  1  0  0  0  0
 17 19  1  0  0  0  0
 18 45  1  0  0  0  0
 18 46  1  0  0  0  0
 19 20  2  0  0  0  0
 19 21  1  0  0  0  0
 21 22  1  0  0  0  0
 22 23  1  0  0  0  0
 22 24  1  0  0  0  0
 22 25  1  0  0  0  0
 23 47  1  0  0  0  0
 23 48  1  0  0  0  0
 23 49  1  0  0  0  0
 24 50  1  0  0  0  0
 24 51  1  0  0  0  0
 24 52  1  0  0  0  0
 25 53  1  0  0  0  0
 25 54  1  0  0  0  0
 25 55  1  0  0  0  0
 26 27  2  0  0  0  0
 26 56  1  0  0  0  0
M  CHG  1  56  -1
M  END
$$$$
ZINC04252856
  -OEChem-08230709463D

 59 62  0     1  0  0  0  0  0999 V2000
    7.0794   -1.0149   -2.4078 C   0  0  0  0  0  0  0  0  0  0  0  0
    5.7759   -0.4284   -1.8617 C   0  0  0  0  0  0  0  0  0  0  0  0
    5.9994    0.9599   -1.4511 N   0  0  0  0  0  0  0  0  0  0  0  0
    4.9478    1.7083   -0.9172 C   0  0  0  0  0  0  0  0  0  0  0  0
    3.6944    1.1333   -0.7778 C   0  0  0  0  0  0  0  0  0  0  0  0
    2.6423    1.8801   -0.2448 C   0  0  0  0  0  0  0  0  0  0  0  0
    2.8781    3.2077    0.1316 C   0  0  0  0  0  0  0  0  0  0  0  0
    4.1223    3.7715   -0.0038 C   0  0  0  0  0  0  0  0  0  0  0  0
    5.1643    3.0254   -0.5288 C   0  0  0  0  0  0  0  0  0  0  0  0
    6.5318    3.6406   -0.6786 C   0  0  0  0  0  0  0  0  0  0  0  0
    1.7102    3.9991    0.6857 C   0  0  1  0  0  0  0  0  0  0  0  0
    1.8583    5.0646    0.5100 H   0  0  0  0  0  0  0  0  0  0  0  0
    0.4800    3.4975   -0.0871 C   0  0  2  0  0  0  0  0  0  0  0  0
    0.5771    3.7294   -1.0550 H   0  0  0  0  0  0  0  0  0  0  0  0
   -0.7647    4.1675    0.3827 C   0  0  0  0  0  0  0  0  0  0  0  0
   -1.8826    3.5077    0.6519 C   0  0  0  0  0  0  0  0  0  0  0  0
   -1.9352    2.0480    0.5165 C   0  0  0  0  0  0  0  0  0  0  0  0
   -0.7842    1.3428    0.2297 C   0  0  0  0  0  0  0  0  0  0  0  0
    0.4260    2.0007    0.0211 C   0  0  0  0  0  0  0  0  0  0  0  0
    1.4335    1.3293   -0.0974 O   0  3  0  0  0  0  0  0  0  0  0  0
   -3.1282    1.3839    0.6749 N   0  0  0  0  0  0  0  0  0  0  0  0
   -3.1777   -0.0745    0.5450 C   0  0  0  0  0  0  0  0  0  0  0  0
   -4.6125   -0.5578    0.7656 C   0  0  0  0  0  0  0  0  0  0  0  0
   -3.1071    4.2630    1.1004 C   0  0  0  0  0  0  0  0  0  0  0  0
    1.5500    3.7310    2.1600 C   0  0  0  0  0  0  0  0  0  0  0  0
    1.1740    2.4780    2.5981 C   0  0  0  0  0  0  0  0  0  0  0  0
    1.0268    2.2300    3.9512 C   0  0  0  0  0  0  0  0  0  0  0  0
    1.2544    3.2357    4.8741 C   0  0  0  0  0  0  0  0  0  0  0  0
    1.6307    4.4931    4.4500 C   0  0  0  0  0  0  0  0  0  0  0  0
    1.7872    4.7486    3.0860 C   0  0  0  0  0  0  0  0  0  0  0  0
    2.1959    6.0911    2.6247 C   0  0  0  0  0  0  0  0  0  0  0  0
    2.4624    6.2759    1.4541 O   0  0  0  0  0  0  0  0  0  0  0  0
    7.4089   -0.4304   -3.2668 H   0  0  0  0  0  0  0  0  0  0  0  0
    7.8447   -0.9841   -1.6323 H   0  0  0  0  0  0  0  0  0  0  0  0
    6.9131   -2.0478   -2.7134 H   0  0  0  0  0  0  0  0  0  0  0  0
    5.4465   -1.0129   -1.0027 H   0  0  0  0  0  0  0  0  0  0  0  0
    5.0107   -0.4592   -2.6372 H   0  0  0  0  0  0  0  0  0  0  0  0
    6.8777    1.3595   -1.5498 H   0  0  0  0  0  0  0  0  0  0  0  0
    3.5321    0.1094   -1.0807 H   0  0  0  0  0  0  0  0  0  0  0  0
    4.2883    4.7950    0.2983 H   0  0  0  0  0  0  0  0  0  0  0  0
    7.1087    3.4693    0.2303 H   0  0  0  0  0  0  0  0  0  0  0  0
    7.0444    3.1850   -1.5257 H   0  0  0  0  0  0  0  0  0  0  0  0
    6.4312    4.7126   -0.8485 H   0  0  0  0  0  0  0  0  0  0  0  0
   -0.7572    5.2405    0.5056 H   0  0  0  0  0  0  0  0  0  0  0  0
   -0.8230    0.2656    0.1616 H   0  0  0  0  0  0  0  0  0  0  0  0
   -0.8807    1.1222    1.2003 H   0  0  0  0  0  0  0  0  0  0  0  0
   -2.8470   -0.3617   -0.4532 H   0  0  0  0  0  0  0  0  0  0  0  0
   -2.5230   -0.5280    1.2892 H   0  0  0  0  0  0  0  0  0  0  0  0
   -5.2671   -0.1043    0.0214 H   0  0  0  0  0  0  0  0  0  0  0  0
   -4.6493   -1.6429    0.6689 H   0  0  0  0  0  0  0  0  0  0  0  0
   -4.9432   -0.2706    1.7637 H   0  0  0  0  0  0  0  0  0  0  0  0
   -3.7007    4.5426    0.2300 H   0  0  0  0  0  0  0  0  0  0  0  0
   -3.7030    3.6308    1.7588 H   0  0  0  0  0  0  0  0  0  0  0  0
   -2.8033    5.1618    1.6370 H   0  0  0  0  0  0  0  0  0  0  0  0
    0.9945    1.6886    1.8830 H   0  0  0  0  0  0  0  0  0  0  0  0
    0.7327    1.2472    4.2887 H   0  0  0  0  0  0  0  0  0  0  0  0
    1.1374    3.0356    5.9290 H   0  0  0  0  0  0  0  0  0  0  0  0
    1.8080    5.2770    5.1713 H   0  0  0  0  0  0  0  0  0  0  0  0
    2.2731    7.1102    3.5021 O   0  5  0  0  0  0  0  0  0  0  0  0
  1  2  1  0  0  0  0
  1 33  1  0  0  0  0
  1 34  1  0  0  0  0
  1 35  1  0  0  0  0
  2  3  1  0  0  0  0
  2 36  1  0  0  0  0
  2 37  1  0  0  0  0
  3  4  1  0  0  0  0
  3 38  1  0  0  0  0
  4  9  2  0  0  0  0
  4  5  1  0  0  0  0
  5  6  2  0  0  0  0
  5 39  1  0  0  0  0
  6 20  1  0  0  0  0
  6  7  1  0  0  0  0
  7  8  2  0  0  0  0
  7 11  1  0  0  0  0
  8  9  1  0  0  0  0
  8 40  1  0  0  0  0
  9 10  1  0  0  0  0
 10 41  1  0  0  0  0
 10 42  1  0  0  0  0
 10 43  1  0  0  0  0
 11 12  1  0  0  0  0
 11 13  1  0  0  0  0
 11 25  1  0  0  0  0
 13 14  1  0  0  0  0
 13 19  1  0  0  0  0
 13 15  1  0  0  0  0
 15 16  2  0  0  0  0
 15 44  1  0  0  0  0
 16 17  1  0  0  0  0
 16 24  1  0  0  0  0
 17 18  1  0  0  0  0
 17 21  2  0  0  0  0
 18 19  1  0  0  0  0
 18 45  1  0  0  0  0
 18 46  1  0  0  0  0
 19 20  2  0  0  0  0
 21 22  1  0  0  0  0
 22 23  1  0  0  0  0
 22 47  1  0  0  0  0
 22 48  1  0  0  0  0
 23 49  1  0  0  0  0
 23 50  1  0  0  0  0
 23 51  1  0  0  0  0
 24 52  1  0  0  0  0
 24 53  1  0  0  0  0
 24 54  1  0  0  0  0
 25 30  2  0  0  0  0
 25 26  1  0  0  0  0
 26 27  2  0  0  0  0
 26 55  1  0  0  0  0
 27 28  1  0  0  0  0
 27 56  1  0  0  0  0
 28 29  2  0  0  0  0
 28 57  1  0  0  0  0
 29 30  1  0  0  0  0
 29 58  1  0  0  0  0
 30 31  1  0  0  0  0
 31 32  2  0  0  0  0
 31 59  1  0  0  0  0
M  CHG  2  20   1  59  -1
M  END
$$$$
ZINC04252856
  -OEChem-08230709463D

 59 62  0     1  0  0  0  0  0999 V2000
    7.0794   -1.0149   -2.4078 C   0  0  0  0  0  0  0  0  0  0  0  0
    5.7759   -0.4284   -1.8617 C   0  0  0  0  0  0  0  0  0  0  0  0
    5.9994    0.9599   -1.4511 N   0  0  0  0  0  0  0  0  0  0  0  0
    4.9478    1.7083   -0.9172 C   0  0  0  0  0  0  0  0  0  0  0  0
    3.6944    1.1333   -0.7778 C   0  0  0  0  0  0  0  0  0  0  0  0
    2.6423    1.8801   -0.2448 C   0  0  0  0  0  0  0  0  0  0  0  0
    2.8781    3.2077    0.1316 C   0  0  0  0  0  0  0  0  0  0  0  0
    4.1223    3.7715   -0.0038 C   0  0  0  0  0  0  0  0  0  0  0  0
    5.1643    3.0254   -0.5288 C   0  0  0  0  0  0  0  0  0  0  0  0
    6.5318    3.6406   -0.6786 C   0  0  0  0  0  0  0  0  0  0  0  0
    1.7102    3.9991    0.6857 C   0  0  1  0  0  0  0  0  0  0  0  0
    1.8583    5.0646    0.5100 H   0  0  0  0  0  0  0  0  0  0  0  0
    0.4800    3.4975   -0.0871 C   0  0  2  0  0  0  0  0  0  0  0  0
    0.5770    3.7294   -1.0550 H   0  0  0  0  0  0  0  0  0  0  0  0
   -0.7647    4.1675    0.3827 C   0  0  0  0  0  0  0  0  0  0  0  0
   -1.8826    3.5077    0.6519 C   0  0  0  0  0  0  0  0  0  0  0  0
   -1.9352    2.0480    0.5165 C   0  0  0  0  0  0  0  0  0  0  0  0
   -0.7842    1.3428    0.2297 C   0  0  0  0  0  0  0  0  0  0  0  0
    0.4260    2.0007    0.0211 C   0  0  0  0  0  0  0  0  0  0  0  0
    1.4335    1.3293   -0.0974 O   0  3  0  0  0  0  0  0  0  0  0  0
   -3.1282    1.3839    0.6749 N   0  0  0  0  0  0  0  0  0  0  0  0
   -4.3504    2.1344    0.9736 C   0  0  0  0  0  0  0  0  0  0  0  0
   -5.5267    1.1642    1.0997 C   0  0  0  0  0  0  0  0  0  0  0  0
   -3.1071    4.2630    1.1004 C   0  0  0  0  0  0  0  0  0  0  0  0
    1.5500    3.7310    2.1600 C   0  0  0  0  0  0  0  0  0  0  0  0
    1.1740    2.4780    2.5981 C   0  0  0  0  0  0  0  0  0  0  0  0
    1.0268    2.2300    3.9512 C   0  0  0  0  0  0  0  0  0  0  0  0
    1.2544    3.2357    4.8741 C   0  0  0  0  0  0  0  0  0  0  0  0
    1.6307    4.4931    4.4500 C   0  0  0  0  0  0  0  0  0  0  0  0
    1.7872    4.7486    3.0860 C   0  0  0  0  0  0  0  0  0  0  0  0
    2.1959    6.0911    2.6247 C   0  0  0  0  0  0  0  0  0  0  0  0
    2.4624    6.2759    1.4541 O   0  0  0  0  0  0  0  0  0  0  0  0
    7.4089   -0.4304   -3.2668 H   0  0  0  0  0  0  0  0  0  0  0  0
    7.8447   -0.9841   -1.6323 H   0  0  0  0  0  0  0  0  0  0  0  0
    6.9131   -2.0478   -2.7134 H   0  0  0  0  0  0  0  0  0  0  0  0
    5.4465   -1.0129   -1.0027 H   0  0  0  0  0  0  0  0  0  0  0  0
    5.0107   -0.4592   -2.6372 H   0  0  0  0  0  0  0  0  0  0  0  0
    6.8777    1.3595   -1.5498 H   0  0  0  0  0  0  0  0  0  0  0  0
    3.5321    0.1094   -1.0807 H   0  0  0  0  0  0  0  0  0  0  0  0
    4.2883    4.7950    0.2983 H   0  0  0  0  0  0  0  0  0  0  0  0
    7.1087    3.4693    0.2303 H   0  0  0  0  0  0  0  0  0  0  0  0
    7.0444    3.1850   -1.5257 H   0  0  0  0  0  0  0  0  0  0  0  0
    6.4312    4.7126   -0.8485 H   0  0  0  0  0  0  0  0  0  0  0  0
   -0.7572    5.2405    0.5056 H   0  0  0  0  0  0  0  0  0  0  0  0
   -0.9482    0.7406   -0.5516 H   0  0  0  0  0  0  0  0  0  0  0  0
   -0.8807    1.1222    1.2003 H   0  0  0  0  0  0  0  0  0  0  0  0
   -4.2241    2.6760    1.9112 H   0  0  0  0  0  0  0  0  0  0  0  0
   -4.5479    2.8424    0.1687 H   0  0  0  0  0  0  0  0  0  0  0  0
   -5.3291    0.4563    1.9046 H   0  0  0  0  0  0  0  0  0  0  0  0
   -6.4360    1.7226    1.3221 H   0  0  0  0  0  0  0  0  0  0  0  0
   -5.6530    0.6226    0.1623 H   0  0  0  0  0  0  0  0  0  0  0  0
   -3.7007    4.5426    0.2300 H   0  0  0  0  0  0  0  0  0  0  0  0
   -3.7030    3.6308    1.7588 H   0  0  0  0  0  0  0  0  0  0  0  0
   -2.8033    5.1618    1.6370 H   0  0  0  0  0  0  0  0  0  0  0  0
    0.9945    1.6886    1.8830 H   0  0  0  0  0  0  0  0  0  0  0  0
    0.7327    1.2472    4.2887 H   0  0  0  0  0  0  0  0  0  0  0  0
    1.1374    3.0356    5.9290 H   0  0  0  0  0  0  0  0  0  0  0  0
    1.8080    5.2770    5.1713 H   0  0  0  0  0  0  0  0  0  0  0  0
    2.2731    7.1102    3.5021 O   0  5  0  0  0  0  0  0  0  0  0  0
  1  2  1  0  0  0  0
  1 33  1  0  0  0  0
  1 34  1  0  0  0  0
  1 35  1  0  0  0  0
  2  3  1  0  0  0  0
  2 36  1  0  0  0  0
  2 37  1  0  0  0  0
  3  4  1  0  0  0  0
  3 38  1  0  0  0  0
  4  9  2  0  0  0  0
  4  5  1  0  0  0  0
  5  6  2  0  0  0  0
  5 39  1  0  0  0  0
  6 20  1  0  0  0  0
  6  7  1  0  0  0  0
  7  8  2  0  0  0  0
  7 11  1  0  0  0  0
  8  9  1  0  0  0  0
  8 40  1  0  0  0  0
  9 10  1  0  0  0  0
 10 41  1  0  0  0  0
 10 42  1  0  0  0  0
 10 43  1  0  0  0  0
 11 12  1  0  0  0  0
 11 13  1  0  0  0  0
 11 25  1  0  0  0  0
 13 14  1  0  0  0  0
 13 19  1  0  0  0  0
 13 15  1  0  0  0  0
 15 16  2  0  0  0  0
 15 44  1  0  0  0  0
 16 17  1  0  0  0  0
 16 24  1  0  0  0  0
 17 18  1  0  0  0  0
 17 21  2  0  0  0  0
 18 19  1  0  0  0  0
 18 45  1  0  0  0  0
 18 46  1  0  0  0  0
 19 20  2  0  0  0  0
 21 22  1  0  0  0  0
 22 23  1  0  0  0  0
 22 47  1  0  0  0  0
 22 48  1  0  0  0  0
 23 49  1  0  0  0  0
 23 50  1  0  0  0  0
 23 51  1  0  0  0  0
 24 52  1  0  0  0  0
 24 53  1  0  0  0  0
 24 54  1  0  0  0  0
 25 30  2  0  0  0  0
 25 26  1  0  0  0  0
 26 27  2  0  0  0  0
 26 55  1  0  0  0  0
 27 28  1  0  0  0  0
 27 56  1  0  0  0  0
 28 29  2  0  0  0  0
 28 57  1  0  0  0  0
 29 30  1  0  0  0  0
 29 58  1  0  0  0  0
 30 31  1  0  0  0  0
 31 32  2  0  0  0  0
 31 59  1  0  0  0  0
M  CHG  2  20   1  59  -1
M  END
$$$$
ZINC04252865
  -OEChem-08230709463D

 59 62  0     1  0  0  0  0  0999 V2000
   -4.6040    6.4470    4.5694 C   0  0  0  0  0  0  0  0  0  0  0  0
   -3.9778    5.7219    3.3765 C   0  0  0  0  0  0  0  0  0  0  0  0
   -2.5197    5.8494    3.4381 N   0  0  0  0  0  0  0  0  0  0  0  0
   -1.7252    5.2648    2.4491 C   0  0  0  0  0  0  0  0  0  0  0  0
   -2.3203    4.5646    1.4117 C   0  0  0  0  0  0  0  0  0  0  0  0
   -1.5277    3.9797    0.4227 C   0  0  0  0  0  0  0  0  0  0  0  0
   -0.1372    4.1233    0.4980 C   0  0  0  0  0  0  0  0  0  0  0  0
    0.4483    4.8141    1.5297 C   0  0  0  0  0  0  0  0  0  0  0  0
   -0.3418    5.3883    2.5114 C   0  0  0  0  0  0  0  0  0  0  0  0
    0.2973    6.1459    3.6465 C   0  0  0  0  0  0  0  0  0  0  0  0
    0.6954    3.4911   -0.5994 C   0  0  2  0  0  0  0  0  0  0  0  0
    1.6395    4.0241   -0.7120 H   0  0  0  0  0  0  0  0  0  0  0  0
   -0.1468    3.6232   -1.8780 C   0  0  1  0  0  0  0  0  0  0  0  0
   -0.2615    4.5907   -2.1031 H   0  0  0  0  0  0  0  0  0  0  0  0
    0.5336    3.0001   -3.0438 C   0  0  0  0  0  0  0  0  0  0  0  0
   -0.0793    2.1824   -3.8888 C   0  0  0  0  0  0  0  0  0  0  0  0
   -1.4910    1.8349   -3.6947 C   0  0  0  0  0  0  0  0  0  0  0  0
   -2.1529    2.2587   -2.5603 C   0  0  0  0  0  0  0  0  0  0  0  0
   -1.5111    3.0475   -1.6085 C   0  0  0  0  0  0  0  0  0  0  0  0
   -2.0927    3.2797   -0.5655 O   0  3  0  0  0  0  0  0  0  0  0  0
   -2.1531    1.0889   -4.6405 N   0  0  0  0  0  0  0  0  0  0  0  0
   -3.5630    0.7423   -4.4447 C   0  0  0  0  0  0  0  0  0  0  0  0
   -4.0547   -0.0853   -5.6339 C   0  0  0  0  0  0  0  0  0  0  0  0
    0.6797    1.6064   -5.0564 C   0  0  0  0  0  0  0  0  0  0  0  0
    0.9507    2.0384   -0.2900 C   0  0  0  0  0  0  0  0  0  0  0  0
   -0.0887    1.1318   -0.3210 C   0  0  0  0  0  0  0  0  0  0  0  0
    0.1440   -0.2022   -0.0376 C   0  0  0  0  0  0  0  0  0  0  0  0
    1.4193   -0.6366    0.2787 C   0  0  0  0  0  0  0  0  0  0  0  0
    2.4676    0.2589    0.3129 C   0  0  0  0  0  0  0  0  0  0  0  0
    2.2398    1.6068    0.0279 C   0  0  0  0  0  0  0  0  0  0  0  0
    3.3578    2.5718    0.0626 C   0  0  0  0  0  0  0  0  0  0  0  0
    3.1393    3.7596   -0.0677 O   0  0  0  0  0  0  0  0  0  0  0  0
   -4.3299    7.5016    4.5382 H   0  0  0  0  0  0  0  0  0  0  0  0
   -5.6889    6.3521    4.5237 H   0  0  0  0  0  0  0  0  0  0  0  0
   -4.2393    6.0041    5.4962 H   0  0  0  0  0  0  0  0  0  0  0  0
   -4.3425    6.1648    2.4498 H   0  0  0  0  0  0  0  0  0  0  0  0
   -4.2519    4.6673    3.4078 H   0  0  0  0  0  0  0  0  0  0  0  0
   -2.1060    6.3398    4.1656 H   0  0  0  0  0  0  0  0  0  0  0  0
   -3.3954    4.4721    1.3684 H   0  0  0  0  0  0  0  0  0  0  0  0
    1.5231    4.9100    1.5755 H   0  0  0  0  0  0  0  0  0  0  0  0
    0.3990    7.1957    3.3709 H   0  0  0  0  0  0  0  0  0  0  0  0
   -0.3272    6.0628    4.5361 H   0  0  0  0  0  0  0  0  0  0  0  0
    1.2823    5.7275    3.8536 H   0  0  0  0  0  0  0  0  0  0  0  0
    1.5769    3.2249   -3.2098 H   0  0  0  0  0  0  0  0  0  0  0  0
   -3.1839    1.9748   -2.4086 H   0  0  0  0  0  0  0  0  0  0  0  0
   -2.0255    1.2930   -2.3337 H   0  0  0  0  0  0  0  0  0  0  0  0
   -3.6706    0.1616   -3.5286 H   0  0  0  0  0  0  0  0  0  0  0  0
   -4.1542    1.6548   -4.3679 H   0  0  0  0  0  0  0  0  0  0  0  0
   -5.1037   -0.3432   -5.4882 H   0  0  0  0  0  0  0  0  0  0  0  0
   -3.9471    0.4954   -6.5500 H   0  0  0  0  0  0  0  0  0  0  0  0
   -3.4635   -0.9979   -5.7106 H   0  0  0  0  0  0  0  0  0  0  0  0
    0.0192    0.9622   -5.6368 H   0  0  0  0  0  0  0  0  0  0  0  0
    1.0443    2.4165   -5.6880 H   0  0  0  0  0  0  0  0  0  0  0  0
    1.5245    1.0239   -4.6888 H   0  0  0  0  0  0  0  0  0  0  0  0
   -1.0856    1.4634   -0.5715 H   0  0  0  0  0  0  0  0  0  0  0  0
   -0.6734   -0.9077   -0.0630 H   0  0  0  0  0  0  0  0  0  0  0  0
    1.5940   -1.6794    0.4988 H   0  0  0  0  0  0  0  0  0  0  0  0
    3.4625   -0.0816    0.5592 H   0  0  0  0  0  0  0  0  0  0  0  0
    4.6198    2.1346    0.2389 O   0  5  0  0  0  0  0  0  0  0  0  0
  1  2  1  0  0  0  0
  1 33  1  0  0  0  0
  1 34  1  0  0  0  0
  1 35  1  0  0  0  0
  2  3  1  0  0  0  0
  2 36  1  0  0  0  0
  2 37  1  0  0  0  0
  3  4  1  0  0  0  0
  3 38  1  0  0  0  0
  4  9  2  0  0  0  0
  4  5  1  0  0  0  0
  5  6  2  0  0  0  0
  5 39  1  0  0  0  0
  6 20  1  0  0  0  0
  6  7  1  0  0  0  0
  7  8  2  0  0  0  0
  7 11  1  0  0  0  0
  8  9  1  0  0  0  0
  8 40  1  0  0  0  0
  9 10  1  0  0  0  0
 10 41  1  0  0  0  0
 10 42  1  0  0  0  0
 10 43  1  0  0  0  0
 11 12  1  0  0  0  0
 11 13  1  0  0  0  0
 11 25  1  0  0  0  0
 13 14  1  0  0  0  0
 13 19  1  0  0  0  0
 13 15  1  0  0  0  0
 15 16  2  0  0  0  0
 15 44  1  0  0  0  0
 16 17  1  0  0  0  0
 16 24  1  0  0  0  0
 17 18  1  0  0  0  0
 17 21  2  0  0  0  0
 18 19  1  0  0  0  0
 18 45  1  0  0  0  0
 18 46  1  0  0  0  0
 19 20  2  0  0  0  0
 21 22  1  0  0  0  0
 22 23  1  0  0  0  0
 22 47  1  0  0  0  0
 22 48  1  0  0  0  0
 23 49  1  0  0  0  0
 23 50  1  0  0  0  0
 23 51  1  0  0  0  0
 24 52  1  0  0  0  0
 24 53  1  0  0  0  0
 24 54  1  0  0  0  0
 25 30  2  0  0  0  0
 25 26  1  0  0  0  0
 26 27  2  0  0  0  0
 26 55  1  0  0  0  0
 27 28  1  0  0  0  0
 27 56  1  0  0  0  0
 28 29  2  0  0  0  0
 28 57  1  0  0  0  0
 29 30  1  0  0  0  0
 29 58  1  0  0  0  0
 30 31  1  0  0  0  0
 31 32  2  0  0  0  0
 31 59  1  0  0  0  0
M  CHG  2  20   1  59  -1
M  END
$$$$
ZINC04252865
  -OEChem-08230709463D

 59 62  0     1  0  0  0  0  0999 V2000
   -4.6040    6.4470    4.5694 C   0  0  0  0  0  0  0  0  0  0  0  0
   -3.9778    5.7219    3.3765 C   0  0  0  0  0  0  0  0  0  0  0  0
   -2.5197    5.8494    3.4381 N   0  0  0  0  0  0  0  0  0  0  0  0
   -1.7252    5.2648    2.4491 C   0  0  0  0  0  0  0  0  0  0  0  0
   -2.3203    4.5646    1.4117 C   0  0  0  0  0  0  0  0  0  0  0  0
   -1.5277    3.9797    0.4227 C   0  0  0  0  0  0  0  0  0  0  0  0
   -0.1372    4.1233    0.4980 C   0  0  0  0  0  0  0  0  0  0  0  0
    0.4483    4.8141    1.5297 C   0  0  0  0  0  0  0  0  0  0  0  0
   -0.3418    5.3883    2.5114 C   0  0  0  0  0  0  0  0  0  0  0  0
    0.2973    6.1459    3.6465 C   0  0  0  0  0  0  0  0  0  0  0  0
    0.6954    3.4911   -0.5994 C   0  0  2  0  0  0  0  0  0  0  0  0
    1.6395    4.0241   -0.7120 H   0  0  0  0  0  0  0  0  0  0  0  0
   -0.1468    3.6232   -1.8780 C   0  0  1  0  0  0  0  0  0  0  0  0
   -0.2615    4.5908   -2.1031 H   0  0  0  0  0  0  0  0  0  0  0  0
    0.5336    3.0001   -3.0438 C   0  0  0  0  0  0  0  0  0  0  0  0
   -0.0793    2.1824   -3.8888 C   0  0  0  0  0  0  0  0  0  0  0  0
   -1.4910    1.8349   -3.6947 C   0  0  0  0  0  0  0  0  0  0  0  0
   -2.1529    2.2587   -2.5603 C   0  0  0  0  0  0  0  0  0  0  0  0
   -1.5111    3.0475   -1.6085 C   0  0  0  0  0  0  0  0  0  0  0  0
   -2.0927    3.2797   -0.5655 O   0  3  0  0  0  0  0  0  0  0  0  0
   -2.1531    1.0889   -4.6405 N   0  0  0  0  0  0  0  0  0  0  0  0
   -1.4489    0.6404   -5.8443 C   0  0  0  0  0  0  0  0  0  0  0  0
   -2.4063   -0.1647   -6.7252 C   0  0  0  0  0  0  0  0  0  0  0  0
    0.6797    1.6064   -5.0564 C   0  0  0  0  0  0  0  0  0  0  0  0
    0.9507    2.0384   -0.2900 C   0  0  0  0  0  0  0  0  0  0  0  0
   -0.0887    1.1318   -0.3210 C   0  0  0  0  0  0  0  0  0  0  0  0
    0.1440   -0.2022   -0.0376 C   0  0  0  0  0  0  0  0  0  0  0  0
    1.4193   -0.6366    0.2787 C   0  0  0  0  0  0  0  0  0  0  0  0
    2.4676    0.2589    0.3129 C   0  0  0  0  0  0  0  0  0  0  0  0
    2.2398    1.6068    0.0279 C   0  0  0  0  0  0  0  0  0  0  0  0
    3.3578    2.5718    0.0626 C   0  0  0  0  0  0  0  0  0  0  0  0
    3.1393    3.7596   -0.0677 O   0  0  0  0  0  0  0  0  0  0  0  0
   -4.3299    7.5016    4.5382 H   0  0  0  0  0  0  0  0  0  0  0  0
   -5.6889    6.3521    4.5237 H   0  0  0  0  0  0  0  0  0  0  0  0
   -4.2393    6.0041    5.4962 H   0  0  0  0  0  0  0  0  0  0  0  0
   -4.3425    6.1648    2.4498 H   0  0  0  0  0  0  0  0  0  0  0  0
   -4.2519    4.6673    3.4078 H   0  0  0  0  0  0  0  0  0  0  0  0
   -2.1060    6.3398    4.1656 H   0  0  0  0  0  0  0  0  0  0  0  0
   -3.3954    4.4721    1.3684 H   0  0  0  0  0  0  0  0  0  0  0  0
    1.5231    4.9100    1.5755 H   0  0  0  0  0  0  0  0  0  0  0  0
    0.3990    7.1957    3.3709 H   0  0  0  0  0  0  0  0  0  0  0  0
   -0.3272    6.0628    4.5361 H   0  0  0  0  0  0  0  0  0  0  0  0
    1.2823    5.7275    3.8536 H   0  0  0  0  0  0  0  0  0  0  0  0
    1.5769    3.2249   -3.2098 H   0  0  0  0  0  0  0  0  0  0  0  0
   -3.0021    2.7176   -2.8217 H   0  0  0  0  0  0  0  0  0  0  0  0
   -2.0255    1.2930   -2.3337 H   0  0  0  0  0  0  0  0  0  0  0  0
   -1.0876    1.5070   -6.3980 H   0  0  0  0  0  0  0  0  0  0  0  0
   -0.6040    0.0137   -5.5588 H   0  0  0  0  0  0  0  0  0  0  0  0
   -1.8823   -0.4984   -7.6209 H   0  0  0  0  0  0  0  0  0  0  0  0
   -2.7676   -1.0313   -6.1715 H   0  0  0  0  0  0  0  0  0  0  0  0
   -3.2511    0.4621   -7.0108 H   0  0  0  0  0  0  0  0  0  0  0  0
    0.0192    0.9622   -5.6368 H   0  0  0  0  0  0  0  0  0  0  0  0
    1.0443    2.4165   -5.6880 H   0  0  0  0  0  0  0  0  0  0  0  0
    1.5245    1.0239   -4.6888 H   0  0  0  0  0  0  0  0  0  0  0  0
   -1.0856    1.4634   -0.5715 H   0  0  0  0  0  0  0  0  0  0  0  0
   -0.6734   -0.9077   -0.0630 H   0  0  0  0  0  0  0  0  0  0  0  0
    1.5940   -1.6794    0.4988 H   0  0  0  0  0  0  0  0  0  0  0  0
    3.4625   -0.0816    0.5592 H   0  0  0  0  0  0  0  0  0  0  0  0
    4.6198    2.1346    0.2389 O   0  5  0  0  0  0  0  0  0  0  0  0
  1  2  1  0  0  0  0
  1 33  1  0  0  0  0
  1 34  1  0  0  0  0
  1 35  1  0  0  0  0
  2  3  1  0  0  0  0
  2 36  1  0  0  0  0
  2 37  1  0  0  0  0
  3  4  1  0  0  0  0
  3 38  1  0  0  0  0
  4  9  2  0  0  0  0
  4  5  1  0  0  0  0
  5  6  2  0  0  0  0
  5 39  1  0  0  0  0
  6 20  1  0  0  0  0
  6  7  1  0  0  0  0
  7  8  2  0  0  0  0
  7 11  1  0  0  0  0
  8  9  1  0  0  0  0
  8 40  1  0  0  0  0
  9 10  1  0  0  0  0
 10 41  1  0  0  0  0
 10 42  1  0  0  0  0
 10 43  1  0  0  0  0
 11 12  1  0  0  0  0
 11 13  1  0  0  0  0
 11 25  1  0  0  0  0
 13 14  1  0  0  0  0
 13 19  1  0  0  0  0
 13 15  1  0  0  0  0
 15 16  2  0  0  0  0
 15 44  1  0  0  0  0
 16 17  1  0  0  0  0
 16 24  1  0  0  0  0
 17 18  1  0  0  0  0
 17 21  2  0  0  0  0
 18 19  1  0  0  0  0
 18 45  1  0  0  0  0
 18 46  1  0  0  0  0
 19 20  2  0  0  0  0
 21 22  1  0  0  0  0
 22 23  1  0  0  0  0
 22 47  1  0  0  0  0
 22 48  1  0  0  0  0
 23 49  1  0  0  0  0
 23 50  1  0  0  0  0
 23 51  1  0  0  0  0
 24 52  1  0  0  0  0
 24 53  1  0  0  0  0
 24 54  1  0  0  0  0
 25 30  2  0  0  0  0
 25 26  1  0  0  0  0
 26 27  2  0  0  0  0
 26 55  1  0  0  0  0
 27 28  1  0  0  0  0
 27 56  1  0  0  0  0
 28 29  2  0  0  0  0
 28 57  1  0  0  0  0
 29 30  1  0  0  0  0
 29 58  1  0  0  0  0
 30 31  1  0  0  0  0
 31 32  2  0  0  0  0
 31 59  1  0  0  0  0
M  CHG  2  20   1  59  -1
M  END
$$$$
ZINC04272046
  -OEChem-08230709463D

 56 59  0     0  0  0  0  0  0999 V2000
   -8.3462    6.2140    2.1652 C   0  0  0  0  0  0  0  0  0  0  0  0
   -6.9591    5.6365    1.8764 C   0  0  0  0  0  0  0  0  0  0  0  0
   -7.0345    4.1737    1.8520 N   0  0  0  0  0  0  0  0  0  0  0  0
   -5.8909    3.4228    1.6065 C   0  0  0  0  0  0  0  0  0  0  0  0
   -4.6801    4.0644    1.3851 C   0  0  0  0  0  0  0  0  0  0  0  0
   -3.5364    3.3195    1.1397 C   0  0  0  0  0  0  0  0  0  0  0  0
   -3.6237    1.9138    1.1192 C   0  0  0  0  0  0  0  0  0  0  0  0
   -4.8538    1.2816    1.3451 C   0  0  0  0  0  0  0  0  0  0  0  0
   -5.9689    2.0289    1.5840 C   0  0  0  0  0  0  0  0  0  0  0  0
   -7.2911    1.3475    1.8257 C   0  0  0  0  0  0  0  0  0  0  0  0
   -2.4180    1.1186    0.8603 C   0  0  0  0  0  0  0  0  0  0  0  0
   -1.2123    1.8097    0.6413 C   0  0  0  0  0  0  0  0  0  0  0  0
   -0.0161    1.1050    0.3872 C   0  0  0  0  0  0  0  0  0  0  0  0
    1.1345    1.7834    0.1734 C   0  0  0  0  0  0  0  0  0  0  0  0
    1.1399    3.2447    0.2120 C   0  0  0  0  0  0  0  0  0  0  0  0
    2.2704    3.9080    0.0019 N   0  0  0  0  0  0  0  0  0  0  0  0
    2.2541    5.3693   -0.1001 C   0  0  0  0  0  0  0  0  0  0  0  0
    2.7886    5.7908   -1.4704 C   0  0  0  0  0  0  0  0  0  0  0  0
   -0.0526    3.9523    0.4715 C   0  0  0  0  0  0  0  0  0  0  0  0
   -1.2151    3.2714    0.6872 C   0  0  0  0  0  0  0  0  0  0  0  0
   -2.3581    3.9459    0.9358 O   0  0  0  0  0  0  0  0  0  0  0  0
    2.4113    1.0325   -0.1043 C   0  0  0  0  0  0  0  0  0  0  0  0
   -2.4683   -0.3547    0.8311 C   0  0  0  0  0  0  0  0  0  0  0  0
   -2.2537   -1.0883    1.9987 C   0  0  0  0  0  0  0  0  0  0  0  0
   -2.3059   -2.4675    1.9661 C   0  0  0  0  0  0  0  0  0  0  0  0
   -2.5612   -3.1325    0.7784 C   0  0  0  0  0  0  0  0  0  0  0  0
   -2.7715   -2.4250   -0.3894 C   0  0  0  0  0  0  0  0  0  0  0  0
   -2.7277   -1.0324   -0.3779 C   0  0  0  0  0  0  0  0  0  0  0  0
   -2.9509   -0.2715   -1.6233 C   0  0  0  0  0  0  0  0  0  0  0  0
   -2.9114    0.9426   -1.6087 O   0  0  0  0  0  0  0  0  0  0  0  0
   -9.0403    5.8989    1.3862 H   0  0  0  0  0  0  0  0  0  0  0  0
   -8.6963    5.8520    3.1319 H   0  0  0  0  0  0  0  0  0  0  0  0
   -8.2901    7.3024    2.1834 H   0  0  0  0  0  0  0  0  0  0  0  0
   -6.2649    5.9516    2.6555 H   0  0  0  0  0  0  0  0  0  0  0  0
   -6.6089    5.9985    0.9097 H   0  0  0  0  0  0  0  0  0  0  0  0
   -7.8825    3.7291    2.0072 H   0  0  0  0  0  0  0  0  0  0  0  0
   -4.6286    5.1430    1.4043 H   0  0  0  0  0  0  0  0  0  0  0  0
   -4.9187    0.2037    1.3289 H   0  0  0  0  0  0  0  0  0  0  0  0
   -7.8083    1.2106    0.8760 H   0  0  0  0  0  0  0  0  0  0  0  0
   -7.1198    0.3761    2.2895 H   0  0  0  0  0  0  0  0  0  0  0  0
   -7.9016    1.9630    2.4865 H   0  0  0  0  0  0  0  0  0  0  0  0
   -0.0203    0.0254    0.3590 H   0  0  0  0  0  0  0  0  0  0  0  0
    1.2325    5.7305    0.0182 H   0  0  0  0  0  0  0  0  0  0  0  0
    2.8828    5.7951    0.6818 H   0  0  0  0  0  0  0  0  0  0  0  0
    2.7765    6.8781   -1.5463 H   0  0  0  0  0  0  0  0  0  0  0  0
    3.8102    5.4297   -1.5887 H   0  0  0  0  0  0  0  0  0  0  0  0
    2.1599    5.3650   -2.2523 H   0  0  0  0  0  0  0  0  0  0  0  0
   -0.0455    5.0319    0.4991 H   0  0  0  0  0  0  0  0  0  0  0  0
    2.5160    0.8785   -1.1783 H   0  0  0  0  0  0  0  0  0  0  0  0
    3.2595    1.6092    0.2645 H   0  0  0  0  0  0  0  0  0  0  0  0
    2.3818    0.0666    0.4001 H   0  0  0  0  0  0  0  0  0  0  0  0
   -2.0504   -0.5772    2.9281 H   0  0  0  0  0  0  0  0  0  0  0  0
   -2.1427   -3.0318    2.8724 H   0  0  0  0  0  0  0  0  0  0  0  0
   -2.5957   -4.2118    0.7649 H   0  0  0  0  0  0  0  0  0  0  0  0
   -2.9697   -2.9513   -1.3114 H   0  0  0  0  0  0  0  0  0  0  0  0
   -3.1984   -0.9236   -2.7761 O   0  5  0  0  0  0  0  0  0  0  0  0
  1  2  1  0  0  0  0
  1 31  1  0  0  0  0
  1 32  1  0  0  0  0
  1 33  1  0  0  0  0
  2  3  1  0  0  0  0
  2 34  1  0  0  0  0
  2 35  1  0  0  0  0
  3  4  1  0  0  0  0
  3 36  1  0  0  0  0
  4  9  2  0  0  0  0
  4  5  1  0  0  0  0
  5  6  2  0  0  0  0
  5 37  1  0  0  0  0
  6 21  1  0  0  0  0
  6  7  1  0  0  0  0
  7  8  2  0  0  0  0
  7 11  1  0  0  0  0
  8  9  1  0  0  0  0
  8 38  1  0  0  0  0
  9 10  1  0  0  0  0
 10 39  1  0  0  0  0
 10 40  1  0  0  0  0
 10 41  1  0  0  0  0
 11 12  2  0  0  0  0
 11 23  1  0  0  0  0
 12 20  1  0  0  0  0
 12 13  1  0  0  0  0
 13 14  2  0  0  0  0
 13 42  1  0  0  0  0
 14 15  1  0  0  0  0
 14 22  1  0  0  0  0
 15 16  2  0  0  0  0
 15 19  1  0  0  0  0
 16 17  1  0  0  0  0
 17 18  1  0  0  0  0
 17 43  1  0  0  0  0
 17 44  1  0  0  0  0
 18 45  1  0  0  0  0
 18 46  1  0  0  0  0
 18 47  1  0  0  0  0
 19 20  2  0  0  0  0
 19 48  1  0  0  0  0
 20 21  1  0  0  0  0
 22 49  1  0  0  0  0
 22 50  1  0  0  0  0
 22 51  1  0  0  0  0
 23 28  2  0  0  0  0
 23 24  1  0  0  0  0
 24 25  2  0  0  0  0
 24 52  1  0  0  0  0
 25 26  1  0  0  0  0
 25 53  1  0  0  0  0
 26 27  2  0  0  0  0
 26 54  1  0  0  0  0
 27 28  1  0  0  0  0
 27 55  1  0  0  0  0
 28 29  1  0  0  0  0
 29 30  2  0  0  0  0
 29 56  1  0  0  0  0
M  CHG  1  56  -1
M  END
$$$$
ZINC04293891
  -OEChem-08230709463D

 48 49  0     0  0  0  0  0  0999 V2000
    5.6462    5.2491   -0.0121 C   0  0  0  0  0  0  0  0  0  0  0  0
    5.0844    3.8508   -0.0209 C   0  0  0  0  0  0  0  0  0  0  0  0
    5.8200    2.6843   -0.0362 C   0  0  0  0  0  0  0  0  0  0  0  0
    4.8919    1.6103   -0.0401 C   0  0  0  0  0  0  0  0  0  0  0  0
    3.6499    2.1577   -0.0272 C   0  0  0  0  0  0  0  0  0  0  0  0
    3.7768    3.5252   -0.0215 N   0  0  0  0  0  0  0  0  0  0  0  0
    2.6655    4.4797   -0.0131 C   0  0  0  0  0  0  0  0  0  0  0  0
    2.3695    4.9052    1.4264 C   0  0  0  0  0  0  0  0  0  0  0  0
    1.1813    5.7619    1.4479 N   0  0  0  0  0  0  0  0  0  0  0  0
    0.7300    6.2589    2.6166 C   0  0  0  0  0  0  0  0  0  0  0  0
    1.3086    5.9966    3.6523 O   0  0  0  0  0  0  0  0  0  0  0  0
   -0.3620    7.0462    2.6363 O   0  0  0  0  0  0  0  0  0  0  0  0
   -0.7911    7.5459    3.9304 C   0  0  0  0  0  0  0  0  0  0  0  0
    0.3297    8.3819    4.5515 C   0  0  0  0  0  0  0  0  0  0  0  0
   -2.0377    8.4151    3.7536 C   0  0  0  0  0  0  0  0  0  0  0  0
   -1.1175    6.3671    4.8496 C   0  0  0  0  0  0  0  0  0  0  0  0
    2.3748    1.4080   -0.0259 C   0  0  0  0  0  0  0  0  0  0  0  0
    2.3301    0.1009   -0.5124 C   0  0  0  0  0  0  0  0  0  0  0  0
    1.1377   -0.5931   -0.5080 C   0  0  0  0  0  0  0  0  0  0  0  0
   -0.0121    0.0043   -0.0231 C   0  0  0  0  0  0  0  0  0  0  0  0
    0.0254    1.3002    0.4598 C   0  0  0  0  0  0  0  0  0  0  0  0
    1.2115    2.0049    0.4613 C   0  0  0  0  0  0  0  0  0  0  0  0
    7.2875    2.5740   -0.0466 C   0  0  0  0  0  0  0  0  0  0  0  0
    7.9724    3.5781   -0.0422 O   0  0  0  0  0  0  0  0  0  0  0  0
    5.7752    5.5953   -1.0376 H   0  0  0  0  0  0  0  0  0  0  0  0
    4.9591    5.9135    0.5119 H   0  0  0  0  0  0  0  0  0  0  0  0
    6.6107    5.2500    0.4957 H   0  0  0  0  0  0  0  0  0  0  0  0
    5.1291    0.5567   -0.0509 H   0  0  0  0  0  0  0  0  0  0  0  0
    2.9346    5.3559   -0.6030 H   0  0  0  0  0  0  0  0  0  0  0  0
    1.7803    4.0105   -0.4425 H   0  0  0  0  0  0  0  0  0  0  0  0
    2.1907    4.0204    2.0374 H   0  0  0  0  0  0  0  0  0  0  0  0
    3.2216    5.4558    1.8250 H   0  0  0  0  0  0  0  0  0  0  0  0
    0.7194    5.9713    0.6211 H   0  0  0  0  0  0  0  0  0  0  0  0
    0.5622    9.2217    3.8966 H   0  0  0  0  0  0  0  0  0  0  0  0
    0.0076    8.7570    5.5229 H   0  0  0  0  0  0  0  0  0  0  0  0
    1.2178    7.7626    4.6774 H   0  0  0  0  0  0  0  0  0  0  0  0
   -2.8362    7.8196    3.3111 H   0  0  0  0  0  0  0  0  0  0  0  0
   -2.3598    8.7902    4.7251 H   0  0  0  0  0  0  0  0  0  0  0  0
   -1.8052    9.2549    3.0988 H   0  0  0  0  0  0  0  0  0  0  0  0
   -0.2293    5.7478    4.9755 H   0  0  0  0  0  0  0  0  0  0  0  0
   -1.4396    6.7422    5.8210 H   0  0  0  0  0  0  0  0  0  0  0  0
   -1.9159    5.7715    4.4071 H   0  0  0  0  0  0  0  0  0  0  0  0
    3.2271   -0.3666   -0.8908 H   0  0  0  0  0  0  0  0  0  0  0  0
    1.1028   -1.6065   -0.8798 H   0  0  0  0  0  0  0  0  0  0  0  0
   -0.9430   -0.5433   -0.0219 H   0  0  0  0  0  0  0  0  0  0  0  0
   -0.8757    1.7611    0.8366 H   0  0  0  0  0  0  0  0  0  0  0  0
    1.2396    3.0163    0.8392 H   0  0  0  0  0  0  0  0  0  0  0  0
    7.8719    1.3596   -0.0609 O   0  5  0  0  0  0  0  0  0  0  0  0
  1  2  1  0  0  0  0
  1 25  1  0  0  0  0
  1 26  1  0  0  0  0
  1 27  1  0  0  0  0
  2  6  1  0  0  0  0
  2  3  2  0  0  0  0
  3  4  1  0  0  0  0
  3 23  1  0  0  0  0
  4  5  2  0  0  0  0
  4 28  1  0  0  0  0
  5  6  1  0  0  0  0
  5 17  1  0  0  0  0
  6  7  1  0  0  0  0
  7  8  1  0  0  0  0
  7 29  1  0  0  0  0
  7 30  1  0  0  0  0
  8  9  1  0  0  0  0
  8 31  1  0  0  0  0
  8 32  1  0  0  0  0
  9 10  1  0  0  0  0
  9 33  1  0  0  0  0
 10 11  2  0  0  0  0
 10 12  1  0  0  0  0
 12 13  1  0  0  0  0
 13 14  1  0  0  0  0
 13 15  1  0  0  0  0
 13 16  1  0  0  0  0
 14 34  1  0  0  0  0
 14 35  1  0  0  0  0
 14 36  1  0  0  0  0
 15 37  1  0  0  0  0
 15 38  1  0  0  0  0
 15 39  1  0  0  0  0
 16 40  1  0  0  0  0
 16 41  1  0  0  0  0
 16 42  1  0  0  0  0
 17 22  2  0  0  0  0
 17 18  1  0  0  0  0
 18 19  2  0  0  0  0
 18 43  1  0  0  0  0
 19 20  1  0  0  0  0
 19 44  1  0  0  0  0
 20 21  2  0  0  0  0
 20 45  1  0  0  0  0
 21 22  1  0  0  0  0
 21 46  1  0  0  0  0
 22 47  1  0  0  0  0
 23 24  2  0  0  0  0
 23 48  1  0  0  0  0
M  CHG  1  48  -1
M  END
$$$$
ZINC04334177
  -OEChem-08230709463D

 59 61  0     0  0  0  0  0  0999 V2000
    4.8727   -6.5311    7.3528 C   0  0  0  0  0  0  0  0  0  0  0  0
    3.7472   -5.4971    7.4242 C   0  0  0  0  0  0  0  0  0  0  0  0
    3.4444   -5.1732    8.8885 C   0  0  0  0  0  0  0  0  0  0  0  0
    2.4919   -6.0627    6.7569 C   0  0  0  0  0  0  0  0  0  0  0  0
    4.1733   -4.2407    6.7095 C   0  0  0  0  0  0  0  0  0  0  0  0
    4.5002   -4.2875    5.3668 C   0  0  0  0  0  0  0  0  0  0  0  0
    4.8915   -3.1374    4.7094 C   0  0  0  0  0  0  0  0  0  0  0  0
    4.9560   -1.9342    5.3975 C   0  0  0  0  0  0  0  0  0  0  0  0
    4.6321   -1.8908    6.7460 C   0  0  0  0  0  0  0  0  0  0  0  0
    4.2363   -3.0429    7.3974 C   0  0  0  0  0  0  0  0  0  0  0  0
    5.3411   -0.8014    4.7533 O   0  0  0  0  0  0  0  0  0  0  0  0
    4.4411   -0.1945    3.9384 C   0  0  0  0  0  0  0  0  0  0  0  0
    4.7632    1.0186    3.3428 C   0  0  0  0  0  0  0  0  0  0  0  0
    3.8395    1.6294    2.5140 C   0  0  0  0  0  0  0  0  0  0  0  0
    2.6137    0.9987    2.3081 C   0  0  0  0  0  0  0  0  0  0  0  0
    2.3607   -0.2091    2.9407 C   0  0  0  0  0  0  0  0  0  0  0  0
    3.2680   -0.7646    3.7211 N   0  0  0  0  0  0  0  0  0  0  0  0
    1.6471    1.5805    1.4769 N   0  0  0  0  0  0  0  0  0  0  0  0
    0.3410    1.3099    1.6702 C   0  0  0  0  0  0  0  0  0  0  0  0
    0.0038    0.5444    2.5486 O   0  0  0  0  0  0  0  0  0  0  0  0
   -0.7000    1.9535    0.7910 C   0  0  0  0  0  0  0  0  0  0  0  0
   -2.0699    1.3416    1.0909 C   0  0  0  0  0  0  0  0  0  0  0  0
   -3.1754    2.1441    0.3742 C   0  0  0  0  0  0  0  0  0  0  0  0
   -4.3566    2.1414    1.3774 C   0  0  0  0  0  0  0  0  0  0  0  0
   -3.6444    2.2834    2.7455 C   0  0  0  0  0  0  0  0  0  0  0  0
   -2.3680    1.4297    2.5979 C   0  0  0  0  0  0  0  0  0  0  0  0
   -2.1025   -0.1184    0.6346 C   0  0  0  0  0  0  0  0  0  0  0  0
   -2.0080   -0.1772   -0.8683 C   0  0  0  0  0  0  0  0  0  0  0  0
   -2.0063    0.8441   -1.5139 O   0  0  0  0  0  0  0  0  0  0  0  0
    5.7669   -6.1282    7.8282 H   0  0  0  0  0  0  0  0  0  0  0  0
    4.5645   -7.4399    7.8698 H   0  0  0  0  0  0  0  0  0  0  0  0
    5.0884   -6.7619    6.3096 H   0  0  0  0  0  0  0  0  0  0  0  0
    2.6426   -4.4365    8.9394 H   0  0  0  0  0  0  0  0  0  0  0  0
    3.1362   -6.0819    9.4055 H   0  0  0  0  0  0  0  0  0  0  0  0
    4.3387   -4.7702    9.3639 H   0  0  0  0  0  0  0  0  0  0  0  0
    2.7077   -6.2935    5.7137 H   0  0  0  0  0  0  0  0  0  0  0  0
    2.1837   -6.9715    7.2738 H   0  0  0  0  0  0  0  0  0  0  0  0
    1.6901   -5.3261    6.8077 H   0  0  0  0  0  0  0  0  0  0  0  0
    4.4499   -5.2243    4.8316 H   0  0  0  0  0  0  0  0  0  0  0  0
    5.1467   -3.1745    3.6607 H   0  0  0  0  0  0  0  0  0  0  0  0
    4.6857   -0.9565    7.2850 H   0  0  0  0  0  0  0  0  0  0  0  0
    3.9801   -3.0089    8.4461 H   0  0  0  0  0  0  0  0  0  0  0  0
    5.7231    1.4790    3.5244 H   0  0  0  0  0  0  0  0  0  0  0  0
    4.0629    2.5724    2.0374 H   0  0  0  0  0  0  0  0  0  0  0  0
    1.4119   -0.7024    2.7898 H   0  0  0  0  0  0  0  0  0  0  0  0
    1.9180    2.1781    0.7624 H   0  0  0  0  0  0  0  0  0  0  0  0
   -0.7298    3.0252    0.9880 H   0  0  0  0  0  0  0  0  0  0  0  0
   -0.4473    1.7834   -0.2556 H   0  0  0  0  0  0  0  0  0  0  0  0
   -2.8421    3.1636    0.1804 H   0  0  0  0  0  0  0  0  0  0  0  0
   -3.4622    1.6523   -0.5553 H   0  0  0  0  0  0  0  0  0  0  0  0
   -4.9061    1.2016    1.3236 H   0  0  0  0  0  0  0  0  0  0  0  0
   -5.0188    2.9882    1.1969 H   0  0  0  0  0  0  0  0  0  0  0  0
   -4.2738    1.8934    3.5454 H   0  0  0  0  0  0  0  0  0  0  0  0
   -3.3867    3.3253    2.9351 H   0  0  0  0  0  0  0  0  0  0  0  0
   -2.5368    0.4324    3.0040 H   0  0  0  0  0  0  0  0  0  0  0  0
   -1.5368    1.9084    3.1156 H   0  0  0  0  0  0  0  0  0  0  0  0
   -1.2610   -0.6549    1.0729 H   0  0  0  0  0  0  0  0  0  0  0  0
   -3.0357   -0.5794    0.9583 H   0  0  0  0  0  0  0  0  0  0  0  0
   -1.9256   -1.3642   -1.4896 O   0  5  0  0  0  0  0  0  0  0  0  0
  1  2  1  0  0  0  0
  1 30  1  0  0  0  0
  1 31  1  0  0  0  0
  1 32  1  0  0  0  0
  2  3  1  0  0  0  0
  2  4  1  0  0  0  0
  2  5  1  0  0  0  0
  3 33  1  0  0  0  0
  3 34  1  0  0  0  0
  3 35  1  0  0  0  0
  4 36  1  0  0  0  0
  4 37  1  0  0  0  0
  4 38  1  0  0  0  0
  5 10  2  0  0  0  0
  5  6  1  0  0  0  0
  6  7  2  0  0  0  0
  6 39  1  0  0  0  0
  7  8  1  0  0  0  0
  7 40  1  0  0  0  0
  8  9  2  0  0  0  0
  8 11  1  0  0  0  0
  9 10  1  0  0  0  0
  9 41  1  0  0  0  0
 10 42  1  0  0  0  0
 11 12  1  0  0  0  0
 12 17  2  0  0  0  0
 12 13  1  0  0  0  0
 13 14  2  0  0  0  0
 13 43  1  0  0  0  0
 14 15  1  0  0  0  0
 14 44  1  0  0  0  0
 15 16  2  0  0  0  0
 15 18  1  0  0  0  0
 16 17  1  0  0  0  0
 16 45  1  0  0  0  0
 18 19  1  0  0  0  0
 18 46  1  0  0  0  0
 19 20  2  0  0  0  0
 19 21  1  0  0  0  0
 21 22  1  0  0  0  0
 21 47  1  0  0  0  0
 21 48  1  0  0  0  0
 22 26  1  0  0  0  0
 22 23  1  0  0  0  0
 22 27  1  0  0  0  0
 23 24  1  0  0  0  0
 23 49  1  0  0  0  0
 23 50  1  0  0  0  0
 24 25  1  0  0  0  0
 24 51  1  0  0  0  0
 24 52  1  0  0  0  0
 25 26  1  0  0  0  0
 25 53  1  0  0  0  0
 25 54  1  0  0  0  0
 26 55  1  0  0  0  0
 26 56  1  0  0  0  0
 27 28  1  0  0  0  0
 27 57  1  0  0  0  0
 27 58  1  0  0  0  0
 28 29  2  0  0  0  0
 28 59  1  0  0  0  0
M  CHG  1  59  -1
M  END
$$$$
ZINC04334502
  -OEChem-08230709463D

 52 53  0     0  0  0  0  0  0999 V2000
    2.8897    6.0273    1.2750 C   0  0  0  0  0  0  0  0  0  0  0  0
    2.8358    5.4412   -0.1372 C   0  0  0  0  0  0  0  0  0  0  0  0
    2.5041    3.9732   -0.0595 C   0  0  0  0  0  0  0  0  0  0  0  0
    1.2926    3.3897   -0.0784 C   0  0  0  0  0  0  0  0  0  0  0  0
    1.2523    1.9497    0.0152 C   0  0  0  0  0  0  0  0  0  0  0  0
    2.4779    1.2950    0.1061 C   0  0  0  0  0  0  0  0  0  0  0  0
    3.6226    2.5938    0.0721 S   0  0  0  0  0  0  0  0  0  0  0  0
    2.7222   -0.0654    0.2007 N   0  0  0  0  0  0  0  0  0  0  0  0
    3.9889   -0.5187    0.2807 C   0  0  0  0  0  0  0  0  0  0  0  0
    4.9149    0.2644    0.2699 O   0  0  0  0  0  0  0  0  0  0  0  0
    4.2546   -1.9985    0.3837 C   0  0  0  0  0  0  0  0  0  0  0  0
    5.7632   -2.2416    0.4605 C   0  0  0  0  0  0  0  0  0  0  0  0
    6.4336   -1.6895   -0.7991 C   0  0  0  0  0  0  0  0  0  0  0  0
    6.3317   -1.5345    1.6925 C   0  0  0  0  0  0  0  0  0  0  0  0
    6.0330   -3.7440    0.5650 C   0  0  0  0  0  0  0  0  0  0  0  0
    7.5189   -3.9835    0.6407 C   0  0  0  0  0  0  0  0  0  0  0  0
    8.2837   -3.0485    0.6138 O   0  0  0  0  0  0  0  0  0  0  0  0
   -0.0144    1.2134    0.0087 C   0  0  0  0  0  0  0  0  0  0  0  0
   -0.6281    1.0670   -1.0327 O   0  0  0  0  0  0  0  0  0  0  0  0
   -0.5500    0.6542    1.2664 C   0  0  0  0  0  0  0  0  0  0  0  0
    0.0955    0.9120    2.4785 C   0  0  0  0  0  0  0  0  0  0  0  0
   -0.4097    0.3927    3.6496 C   0  0  0  0  0  0  0  0  0  0  0  0
   -1.5542   -0.3956    3.6257 C   0  0  0  0  0  0  0  0  0  0  0  0
   -2.1963   -0.6587    2.4213 C   0  0  0  0  0  0  0  0  0  0  0  0
   -1.7004   -0.1388    1.2466 C   0  0  0  0  0  0  0  0  0  0  0  0
   -2.0464   -0.9096    4.7814 O   0  0  0  0  0  0  0  0  0  0  0  0
   -1.3375   -0.5998    5.9829 C   0  0  0  0  0  0  0  0  0  0  0  0
    1.9216    5.8987    1.7591 H   0  0  0  0  0  0  0  0  0  0  0  0
    3.6564    5.5117    1.8534 H   0  0  0  0  0  0  0  0  0  0  0  0
    3.1296    7.0891    1.2188 H   0  0  0  0  0  0  0  0  0  0  0  0
    3.8039    5.5698   -0.6212 H   0  0  0  0  0  0  0  0  0  0  0  0
    2.0691    5.9568   -0.7155 H   0  0  0  0  0  0  0  0  0  0  0  0
    0.3877    3.9741   -0.1565 H   0  0  0  0  0  0  0  0  0  0  0  0
    1.9815   -0.6917    0.2094 H   0  0  0  0  0  0  0  0  0  0  0  0
    3.7770   -2.3918    1.2811 H   0  0  0  0  0  0  0  0  0  0  0  0
    3.8496   -2.5023   -0.4940 H   0  0  0  0  0  0  0  0  0  0  0  0
    6.2414   -0.6192   -0.8736 H   0  0  0  0  0  0  0  0  0  0  0  0
    7.5084   -1.8627   -0.7444 H   0  0  0  0  0  0  0  0  0  0  0  0
    6.0286   -2.1933   -1.6768 H   0  0  0  0  0  0  0  0  0  0  0  0
    5.8541   -1.9278    2.5899 H   0  0  0  0  0  0  0  0  0  0  0  0
    7.4064   -1.7077    1.7472 H   0  0  0  0  0  0  0  0  0  0  0  0
    6.1395   -0.4642    1.6180 H   0  0  0  0  0  0  0  0  0  0  0  0
    5.5554   -4.1374    1.4624 H   0  0  0  0  0  0  0  0  0  0  0  0
    5.6280   -4.2478   -0.3126 H   0  0  0  0  0  0  0  0  0  0  0  0
    0.9874    1.5208    2.4974 H   0  0  0  0  0  0  0  0  0  0  0  0
    0.0861    0.5952    4.5875 H   0  0  0  0  0  0  0  0  0  0  0  0
   -3.0856   -1.2714    2.4069 H   0  0  0  0  0  0  0  0  0  0  0  0
   -2.2000   -0.3433    0.3112 H   0  0  0  0  0  0  0  0  0  0  0  0
   -0.3159   -0.9725    5.9083 H   0  0  0  0  0  0  0  0  0  0  0  0
   -1.3206    0.4805    6.1266 H   0  0  0  0  0  0  0  0  0  0  0  0
   -1.8353   -1.0713    6.8303 H   0  0  0  0  0  0  0  0  0  0  0  0
    7.9928   -5.2356    0.7380 O   0  5  0  0  0  0  0  0  0  0  0  0
  1  2  1  0  0  0  0
  1 28  1  0  0  0  0
  1 29  1  0  0  0  0
  1 30  1  0  0  0  0
  2  3  1  0  0  0  0
  2 31  1  0  0  0  0
  2 32  1  0  0  0  0
  3  7  1  0  0  0  0
  3  4  2  0  0  0  0
  4  5  1  0  0  0  0
  4 33  1  0  0  0  0
  5  6  2  0  0  0  0
  5 18  1  0  0  0  0
  6  7  1  0  0  0  0
  6  8  1  0  0  0  0
  8  9  1  0  0  0  0
  8 34  1  0  0  0  0
  9 10  2  0  0  0  0
  9 11  1  0  0  0  0
 11 12  1  0  0  0  0
 11 35  1  0  0  0  0
 11 36  1  0  0  0  0
 12 13  1  0  0  0  0
 12 14  1  0  0  0  0
 12 15  1  0  0  0  0
 13 37  1  0  0  0  0
 13 38  1  0  0  0  0
 13 39  1  0  0  0  0
 14 40  1  0  0  0  0
 14 41  1  0  0  0  0
 14 42  1  0  0  0  0
 15 16  1  0  0  0  0
 15 43  1  0  0  0  0
 15 44  1  0  0  0  0
 16 17  2  0  0  0  0
 16 52  1  0  0  0  0
 18 19  2  0  0  0  0
 18 20  1  0  0  0  0
 20 25  2  0  0  0  0
 20 21  1  0  0  0  0
 21 22  2  0  0  0  0
 21 45  1  0  0  0  0
 22 23  1  0  0  0  0
 22 46  1  0  0  0  0
 23 24  2  0  0  0  0
 23 26  1  0  0  0  0
 24 25  1  0  0  0  0
 24 47  1  0  0  0  0
 25 48  1  0  0  0  0
 26 27  1  0  0  0  0
 27 49  1  0  0  0  0
 27 50  1  0  0  0  0
 27 51  1  0  0  0  0
M  CHG  1  52  -1
M  END
$$$$
ZINC04343184
  -OEChem-08230709463D

 55 58  0     1  0  0  0  0  0999 V2000
   -0.0126    1.0758    0.0080 C   0  0  0  0  0  0  0  0  0  0  0  0
   -1.2214    1.7484    0.0174 C   0  0  0  0  0  0  0  0  0  0  0  0
   -1.2455    3.1317    0.0305 C   0  0  0  0  0  0  0  0  0  0  0  0
   -0.0641    3.8427    0.0233 C   0  0  0  0  0  0  0  0  0  0  0  0
    1.1573    3.1750    0.0081 C   0  0  0  0  0  0  0  0  0  0  0  0
    1.1740    1.7789    0.0004 C   0  0  0  0  0  0  0  0  0  0  0  0
    2.2620    4.1658    0.0023 C   0  0  0  0  0  0  0  0  0  0  0  0
    3.6480    3.9977   -0.0128 C   0  0  0  0  0  0  0  0  0  0  0  0
    4.4757    5.1009   -0.0150 C   0  0  0  0  0  0  0  0  0  0  0  0
    3.9383    6.3757   -0.0028 C   0  0  0  0  0  0  0  0  0  0  0  0
    2.5659    6.5498    0.0115 C   0  0  0  0  0  0  0  0  0  0  0  0
    1.7308    5.4524    0.0140 C   0  0  0  0  0  0  0  0  0  0  0  0
    0.2274    5.3234    0.0280 C   0  0  0  0  0  0  0  0  0  0  0  0
   -0.3695    5.9817   -1.2175 C   0  0  0  0  0  0  0  0  0  0  0  0
   -1.8187    5.9541   -1.1321 O   0  0  0  0  0  0  0  0  0  0  0  0
   -2.5018    6.4981   -2.1569 C   0  0  0  0  0  0  0  0  0  0  0  0
   -1.9033    6.9826   -3.0969 O   0  0  0  0  0  0  0  0  0  0  0  0
   -3.8495    6.5051   -2.1402 N   0  0  0  0  0  0  0  0  0  0  0  0
   -4.5928    7.0970   -3.2553 C   0  0  1  0  0  0  0  0  0  0  0  0
   -4.0579    6.9127   -4.1870 H   0  0  0  0  0  0  0  0  0  0  0  0
   -5.9844    6.4659   -3.3327 C   0  0  0  0  0  0  0  0  0  0  0  0
   -5.8525    4.9809   -3.6770 C   0  0  0  0  0  0  0  0  0  0  0  0
   -5.2624    4.8334   -5.0809 C   0  0  0  0  0  0  0  0  0  0  0  0
   -5.1305    3.3485   -5.4252 C   0  0  0  0  0  0  0  0  0  0  0  0
   -6.5108    2.6900   -5.3804 C   0  0  0  0  0  0  0  0  0  0  0  0
   -7.1008    2.8375   -3.9764 C   0  0  0  0  0  0  0  0  0  0  0  0
   -7.2328    4.3224   -3.6321 C   0  0  0  0  0  0  0  0  0  0  0  0
   -4.7262    8.5823   -3.0380 C   0  0  0  0  0  0  0  0  0  0  0  0
   -4.2493    9.0939   -2.0527 O   0  0  0  0  0  0  0  0  0  0  0  0
    0.0021   -0.0041    0.0020 H   0  0  0  0  0  0  0  0  0  0  0  0
   -2.1476    1.1929    0.0184 H   0  0  0  0  0  0  0  0  0  0  0  0
   -2.1902    3.6549    0.0423 H   0  0  0  0  0  0  0  0  0  0  0  0
    2.1154    1.2499   -0.0111 H   0  0  0  0  0  0  0  0  0  0  0  0
    4.0717    3.0043   -0.0216 H   0  0  0  0  0  0  0  0  0  0  0  0
    5.5476    4.9691   -0.0265 H   0  0  0  0  0  0  0  0  0  0  0  0
    4.5911    7.2361   -0.0048 H   0  0  0  0  0  0  0  0  0  0  0  0
    2.1483    7.5457    0.0209 H   0  0  0  0  0  0  0  0  0  0  0  0
   -0.1804    5.7833    0.9282 H   0  0  0  0  0  0  0  0  0  0  0  0
   -0.0289    7.0152   -1.2807 H   0  0  0  0  0  0  0  0  0  0  0  0
   -0.0474    5.4380   -2.1055 H   0  0  0  0  0  0  0  0  0  0  0  0
   -4.3272    6.1184   -1.3898 H   0  0  0  0  0  0  0  0  0  0  0  0
   -6.4858    6.5726   -2.3708 H   0  0  0  0  0  0  0  0  0  0  0  0
   -6.5683    6.9673   -4.1045 H   0  0  0  0  0  0  0  0  0  0  0  0
   -5.1955    4.4973   -2.9541 H   0  0  0  0  0  0  0  0  0  0  0  0
   -5.9194    5.3170   -5.8038 H   0  0  0  0  0  0  0  0  0  0  0  0
   -4.2790    5.3025   -5.1129 H   0  0  0  0  0  0  0  0  0  0  0  0
   -4.4735    2.8649   -4.7023 H   0  0  0  0  0  0  0  0  0  0  0  0
   -4.7101    3.2434   -6.4254 H   0  0  0  0  0  0  0  0  0  0  0  0
   -6.4168    1.6321   -5.6256 H   0  0  0  0  0  0  0  0  0  0  0  0
   -7.1678    3.1736   -6.1033 H   0  0  0  0  0  0  0  0  0  0  0  0
   -6.4439    2.3539   -3.2535 H   0  0  0  0  0  0  0  0  0  0  0  0
   -8.0842    2.3684   -3.9445 H   0  0  0  0  0  0  0  0  0  0  0  0
   -7.6531    4.4275   -2.6320 H   0  0  0  0  0  0  0  0  0  0  0  0
   -7.8897    4.8061   -4.3550 H   0  0  0  0  0  0  0  0  0  0  0  0
   -5.3748    9.3368   -3.9390 O   0  5  0  0  0  0  0  0  0  0  0  0
  1  6  2  0  0  0  0
  1  2  1  0  0  0  0
  1 30  1  0  0  0  0
  2  3  2  0  0  0  0
  2 31  1  0  0  0  0
  3  4  1  0  0  0  0
  3 32  1  0  0  0  0
  4 13  1  0  0  0  0
  4  5  2  0  0  0  0
  5  6  1  0  0  0  0
  5  7  1  0  0  0  0
  6 33  1  0  0  0  0
  7 12  2  0  0  0  0
  7  8  1  0  0  0  0
  8  9  2  0  0  0  0
  8 34  1  0  0  0  0
  9 10  1  0  0  0  0
  9 35  1  0  0  0  0
 10 11  2  0  0  0  0
 10 36  1  0  0  0  0
 11 12  1  0  0  0  0
 11 37  1  0  0  0  0
 12 13  1  0  0  0  0
 13 14  1  0  0  0  0
 13 38  1  0  0  0  0
 14 15  1  0  0  0  0
 14 39  1  0  0  0  0
 14 40  1  0  0  0  0
 15 16  1  0  0  0  0
 16 17  2  0  0  0  0
 16 18  1  0  0  0  0
 18 19  1  0  0  0  0
 18 41  1  0  0  0  0
 19 20  1  0  0  0  0
 19 21  1  0  0  0  0
 19 28  1  0  0  0  0
 21 22  1  0  0  0  0
 21 42  1  0  0  0  0
 21 43  1  0  0  0  0
 22 27  1  0  0  0  0
 22 23  1  0  0  0  0
 22 44  1  0  0  0  0
 23 24  1  0  0  0  0
 23 45  1  0  0  0  0
 23 46  1  0  0  0  0
 24 25  1  0  0  0  0
 24 47  1  0  0  0  0
 24 48  1  0  0  0  0
 25 26  1  0  0  0  0
 25 49  1  0  0  0  0
 25 50  1  0  0  0  0
 26 27  1  0  0  0  0
 26 51  1  0  0  0  0
 26 52  1  0  0  0  0
 27 53  1  0  0  0  0
 27 54  1  0  0  0  0
 28 29  2  0  0  0  0
 28 55  1  0  0  0  0
M  CHG  1  55  -1
M  END
$$$$
ZINC04393075
  -OEChem-08230709463D

 57 58  0     1  0  0  0  0  0999 V2000
   -0.2574    1.8753    0.0119 C   0  0  0  0  0  0  0  0  0  0  0  0
    0.8787    1.4180   -0.9052 C   0  0  0  0  0  0  0  0  0  0  0  0
    0.9299   -0.0460   -0.9264 N   0  0  0  0  0  0  0  0  0  0  0  0
    0.1553   -0.7917   -1.9214 C   0  0  0  0  0  0  0  0  0  0  0  0
    1.0039   -0.9990   -3.1775 C   0  0  0  0  0  0  0  0  0  0  0  0
    1.6896   -0.7067   -0.0304 C   0  0  0  0  0  0  0  0  0  0  0  0
    1.7322   -1.9231   -0.0480 O   0  0  0  0  0  0  0  0  0  0  0  0
    2.4629    0.0377    0.9630 C   0  0  0  0  0  0  0  0  0  0  0  0
    3.1162   -0.6221    1.9426 C   0  0  0  0  0  0  0  0  0  0  0  0
    2.9189   -2.1065    2.1126 C   0  0  0  0  0  0  0  0  0  0  0  0
    4.0202    0.1071    2.8437 C   0  0  0  0  0  0  0  0  0  0  0  0
    5.1868    0.6964    2.3423 C   0  0  0  0  0  0  0  0  0  0  0  0
    6.0276    1.3818    3.1894 C   0  0  0  0  0  0  0  0  0  0  0  0
    5.7250    1.4812    4.5429 C   0  0  0  0  0  0  0  0  0  0  0  0
    4.5706    0.8933    5.0468 C   0  0  0  0  0  0  0  0  0  0  0  0
    3.7204    0.2096    4.2069 C   0  0  0  0  0  0  0  0  0  0  0  0
    4.2494    1.0041    6.5150 C   0  0  0  0  0  0  0  0  0  0  0  0
    3.5287    2.3018    6.7750 C   0  0  0  0  0  0  0  0  0  0  0  0
    3.2995    3.0590    5.8618 O   0  0  0  0  0  0  0  0  0  0  0  0
    6.5600    2.1541    5.3750 O   0  0  0  0  0  0  0  0  0  0  0  0
    7.6619    2.8377    4.7747 C   0  0  2  0  0  0  0  0  0  0  0  0
    7.3572    3.2402    3.8087 H   0  0  0  0  0  0  0  0  0  0  0  0
    8.8220    1.8600    4.5769 C   0  0  0  0  0  0  0  0  0  0  0  0
    8.1027    3.9653    5.6722 C   0  0  0  0  0  0  0  0  0  0  0  0
    8.1333    3.7864    7.0426 C   0  0  0  0  0  0  0  0  0  0  0  0
    8.5418    4.8192    7.8655 C   0  0  0  0  0  0  0  0  0  0  0  0
    8.9106    6.0341    7.3186 C   0  0  0  0  0  0  0  0  0  0  0  0
    8.8755    6.2145    5.9486 C   0  0  0  0  0  0  0  0  0  0  0  0
    8.4711    5.1802    5.1254 C   0  0  0  0  0  0  0  0  0  0  0  0
   -1.2043    1.4840   -0.3599 H   0  0  0  0  0  0  0  0  0  0  0  0
   -0.0817    1.5033    1.0213 H   0  0  0  0  0  0  0  0  0  0  0  0
   -0.2955    2.9646    0.0276 H   0  0  0  0  0  0  0  0  0  0  0  0
    1.8257    1.8093   -0.5334 H   0  0  0  0  0  0  0  0  0  0  0  0
    0.7030    1.7900   -1.9145 H   0  0  0  0  0  0  0  0  0  0  0  0
   -0.1275   -1.7606   -1.5100 H   0  0  0  0  0  0  0  0  0  0  0  0
   -0.7427   -0.2299   -2.1783 H   0  0  0  0  0  0  0  0  0  0  0  0
    1.9020   -1.5609   -2.9206 H   0  0  0  0  0  0  0  0  0  0  0  0
    0.4276   -1.5539   -3.9178 H   0  0  0  0  0  0  0  0  0  0  0  0
    1.2868   -0.0301   -3.5889 H   0  0  0  0  0  0  0  0  0  0  0  0
    2.5113    1.1155    0.9127 H   0  0  0  0  0  0  0  0  0  0  0  0
    3.5868   -2.6414    1.4374 H   0  0  0  0  0  0  0  0  0  0  0  0
    3.1417   -2.3871    3.1420 H   0  0  0  0  0  0  0  0  0  0  0  0
    1.8854   -2.3644    1.8812 H   0  0  0  0  0  0  0  0  0  0  0  0
    5.4248    0.6163    1.2919 H   0  0  0  0  0  0  0  0  0  0  0  0
    6.9262    1.8398    2.8030 H   0  0  0  0  0  0  0  0  0  0  0  0
    2.8235   -0.2465    4.5994 H   0  0  0  0  0  0  0  0  0  0  0  0
    3.6138    0.1697    6.8118 H   0  0  0  0  0  0  0  0  0  0  0  0
    5.1738    0.9798    7.0920 H   0  0  0  0  0  0  0  0  0  0  0  0
    9.1268    1.4576    5.5430 H   0  0  0  0  0  0  0  0  0  0  0  0
    8.5032    1.0445    3.9278 H   0  0  0  0  0  0  0  0  0  0  0  0
    9.6626    2.3814    4.1190 H   0  0  0  0  0  0  0  0  0  0  0  0
    7.8412    2.8386    7.4701 H   0  0  0  0  0  0  0  0  0  0  0  0
    8.5696    4.6782    8.9359 H   0  0  0  0  0  0  0  0  0  0  0  0
    9.2266    6.8421    7.9618 H   0  0  0  0  0  0  0  0  0  0  0  0
    9.1637    7.1636    5.5213 H   0  0  0  0  0  0  0  0  0  0  0  0
    8.4433    5.3213    4.0550 H   0  0  0  0  0  0  0  0  0  0  0  0
    3.1415    2.6165    8.0211 O   0  5  0  0  0  0  0  0  0  0  0  0
  1  2  1  0  0  0  0
  1 30  1  0  0  0  0
  1 31  1  0  0  0  0
  1 32  1  0  0  0  0
  2  3  1  0  0  0  0
  2 33  1  0  0  0  0
  2 34  1  0  0  0  0
  3  4  1  0  0  0  0
  3  6  1  0  0  0  0
  4  5  1  0  0  0  0
  4 35  1  0  0  0  0
  4 36  1  0  0  0  0
  5 37  1  0  0  0  0
  5 38  1  0  0  0  0
  5 39  1  0  0  0  0
  6  7  2  0  0  0  0
  6  8  1  0  0  0  0
  8  9  2  0  0  0  0
  8 40  1  0  0  0  0
  9 10  1  0  0  0  0
  9 11  1  0  0  0  0
 10 41  1  0  0  0  0
 10 42  1  0  0  0  0
 10 43  1  0  0  0  0
 11 16  2  0  0  0  0
 11 12  1  0  0  0  0
 12 13  2  0  0  0  0
 12 44  1  0  0  0  0
 13 14  1  0  0  0  0
 13 45  1  0  0  0  0
 14 15  2  0  0  0  0
 14 20  1  0  0  0  0
 15 16  1  0  0  0  0
 15 17  1  0  0  0  0
 16 46  1  0  0  0  0
 17 18  1  0  0  0  0
 17 47  1  0  0  0  0
 17 48  1  0  0  0  0
 18 19  2  0  0  0  0
 18 57  1  0  0  0  0
 20 21  1  0  0  0  0
 21 22  1  0  0  0  0
 21 23  1  0  0  0  0
 21 24  1  0  0  0  0
 23 49  1  0  0  0  0
 23 50  1  0  0  0  0
 23 51  1  0  0  0  0
 24 29  2  0  0  0  0
 24 25  1  0  0  0  0
 25 26  2  0  0  0  0
 25 52  1  0  0  0  0
 26 27  1  0  0  0  0
 26 53  1  0  0  0  0
 27 28  2  0  0  0  0
 27 54  1  0  0  0  0
 28 29  1  0  0  0  0
 28 55  1  0  0  0  0
 29 56  1  0  0  0  0
M  CHG  1  57  -1
M  END
$$$$
ZINC04396182
  -OEChem-08230709463D

 52 53  0     0  0  0  0  0  0999 V2000
   -0.6513   -1.8215   -3.5697 C   0  0  0  0  0  0  0  0  0  0  0  0
   -1.9619   -1.4716   -2.8620 C   0  0  0  0  0  0  0  0  0  0  0  0
   -2.5495   -2.7321   -2.2242 C   0  0  0  0  0  0  0  0  0  0  0  0
   -2.9546   -0.9041   -3.8785 C   0  0  0  0  0  0  0  0  0  0  0  0
   -1.6962   -0.4443   -1.7919 C   0  0  0  0  0  0  0  0  0  0  0  0
   -0.5672   -0.0317   -1.6125 O   0  0  0  0  0  0  0  0  0  0  0  0
   -2.7515    0.0356   -1.0032 C   0  0  0  0  0  0  0  0  0  0  0  0
   -2.4917    0.8717    0.0600 C   0  0  0  0  0  0  0  0  0  0  0  0
   -1.1125    1.0985    0.5842 C   0  0  0  0  0  0  0  0  0  0  0  0
   -0.2141    0.0715    0.7763 C   0  0  0  0  0  0  0  0  0  0  0  0
    1.0797    0.3494    1.2380 C   0  0  0  0  0  0  0  0  0  0  0  0
    1.4076    1.4958    1.4737 O   0  0  0  0  0  0  0  0  0  0  0  0
    2.0642   -0.7731    1.4422 C   0  0  0  0  0  0  0  0  0  0  0  0
    3.3909   -0.2024    1.9472 C   0  0  0  0  0  0  0  0  0  0  0  0
    1.5079   -1.7584    2.4721 C   0  0  0  0  0  0  0  0  0  0  0  0
    2.2933   -1.4983    0.1146 C   0  0  0  0  0  0  0  0  0  0  0  0
   -0.8024    2.4217    0.8575 N   0  0  0  0  0  0  0  0  0  0  0  0
   -1.8373    3.2455    1.3162 C   0  0  0  0  0  0  0  0  0  0  0  0
   -1.5328    4.4866    1.8503 C   0  0  0  0  0  0  0  0  0  0  0  0
   -2.5585    5.3204    2.3007 C   0  0  0  0  0  0  0  0  0  0  0  0
   -3.8898    4.9001    2.2103 C   0  0  0  0  0  0  0  0  0  0  0  0
   -4.1890    3.6648    1.6836 C   0  0  0  0  0  0  0  0  0  0  0  0
   -3.1696    2.8277    1.2379 C   0  0  0  0  0  0  0  0  0  0  0  0
   -3.4909    1.5688    0.7310 N   0  0  0  0  0  0  0  0  0  0  0  0
   -2.2387    6.6422    2.8714 C   0  0  0  0  0  0  0  0  0  0  0  0
   -1.0821    7.0063    2.9499 O   0  0  0  0  0  0  0  0  0  0  0  0
    0.0559   -2.2258   -2.8455 H   0  0  0  0  0  0  0  0  0  0  0  0
   -0.8435   -2.5646   -4.3437 H   0  0  0  0  0  0  0  0  0  0  0  0
   -0.2327   -0.9235   -4.0240 H   0  0  0  0  0  0  0  0  0  0  0  0
   -3.4832   -2.4828   -1.7201 H   0  0  0  0  0  0  0  0  0  0  0  0
   -2.7417   -3.4751   -2.9983 H   0  0  0  0  0  0  0  0  0  0  0  0
   -1.8422   -3.1364   -1.5001 H   0  0  0  0  0  0  0  0  0  0  0  0
   -2.5360   -0.0061   -4.3329 H   0  0  0  0  0  0  0  0  0  0  0  0
   -3.1468   -1.6471   -4.6525 H   0  0  0  0  0  0  0  0  0  0  0  0
   -3.8883   -0.6548   -3.3743 H   0  0  0  0  0  0  0  0  0  0  0  0
   -3.7681   -0.2505   -1.2293 H   0  0  0  0  0  0  0  0  0  0  0  0
   -0.5055   -0.9471    0.5668 H   0  0  0  0  0  0  0  0  0  0  0  0
    3.2276    0.3142    2.8930 H   0  0  0  0  0  0  0  0  0  0  0  0
    4.1030   -1.0143    2.0949 H   0  0  0  0  0  0  0  0  0  0  0  0
    3.7872    0.4995    1.2135 H   0  0  0  0  0  0  0  0  0  0  0  0
    0.5627   -2.1650    2.1123 H   0  0  0  0  0  0  0  0  0  0  0  0
    2.2200   -2.5703    2.6198 H   0  0  0  0  0  0  0  0  0  0  0  0
    1.3446   -1.2418    3.4179 H   0  0  0  0  0  0  0  0  0  0  0  0
    2.6897   -0.7964   -0.6191 H   0  0  0  0  0  0  0  0  0  0  0  0
    3.0054   -2.3103    0.2623 H   0  0  0  0  0  0  0  0  0  0  0  0
    1.3482   -1.9049   -0.2452 H   0  0  0  0  0  0  0  0  0  0  0  0
    0.0970    2.7638    0.7352 H   0  0  0  0  0  0  0  0  0  0  0  0
   -0.5043    4.8091    1.9179 H   0  0  0  0  0  0  0  0  0  0  0  0
   -4.6838    5.5461    2.5549 H   0  0  0  0  0  0  0  0  0  0  0  0
   -5.2179    3.3434    1.6156 H   0  0  0  0  0  0  0  0  0  0  0  0
   -4.3794    1.1950    0.8394 H   0  0  0  0  0  0  0  0  0  0  0  0
   -3.2291    7.4461    3.3058 O   0  5  0  0  0  0  0  0  0  0  0  0
  1  2  1  0  0  0  0
  1 27  1  0  0  0  0
  1 28  1  0  0  0  0
  1 29  1  0  0  0  0
  2  3  1  0  0  0  0
  2  4  1  0  0  0  0
  2  5  1  0  0  0  0
  3 30  1  0  0  0  0
  3 31  1  0  0  0  0
  3 32  1  0  0  0  0
  4 33  1  0  0  0  0
  4 34  1  0  0  0  0
  4 35  1  0  0  0  0
  5  6  2  0  0  0  0
  5  7  1  0  0  0  0
  7  8  2  0  0  0  0
  7 36  1  0  0  0  0
  8 24  1  0  0  0  0
  8  9  1  0  0  0  0
  9 10  2  0  0  0  0
  9 17  1  0  0  0  0
 10 11  1  0  0  0  0
 10 37  1  0  0  0  0
 11 12  2  0  0  0  0
 11 13  1  0  0  0  0
 13 14  1  0  0  0  0
 13 15  1  0  0  0  0
 13 16  1  0  0  0  0
 14 38  1  0  0  0  0
 14 39  1  0  0  0  0
 14 40  1  0  0  0  0
 15 41  1  0  0  0  0
 15 42  1  0  0  0  0
 15 43  1  0  0  0  0
 16 44  1  0  0  0  0
 16 45  1  0  0  0  0
 16 46  1  0  0  0  0
 17 18  1  0  0  0  0
 17 47  1  0  0  0  0
 18 23  2  0  0  0  0
 18 19  1  0  0  0  0
 19 20  2  0  0  0  0
 19 48  1  0  0  0  0
 20 21  1  0  0  0  0
 20 25  1  0  0  0  0
 21 22  2  0  0  0  0
 21 49  1  0  0  0  0
 22 23  1  0  0  0  0
 22 50  1  0  0  0  0
 23 24  1  0  0  0  0
 24 51  1  0  0  0  0
 25 26  2  0  0  0  0
 25 52  1  0  0  0  0
M  CHG  1  52  -1
M  END
$$$$
ZINC04397313
  -OEChem-08230709463D

 62 65  0     1  0  0  0  0  0999 V2000
    3.5279   -2.9705   -0.6275 C   0  0  0  0  0  0  0  0  0  0  0  0
    2.5472   -1.8355   -0.4826 C   0  0  0  0  0  0  0  0  0  0  0  0
    1.9211   -1.3174   -1.6014 C   0  0  0  0  0  0  0  0  0  0  0  0
    1.0218   -0.2773   -1.4718 C   0  0  0  0  0  0  0  0  0  0  0  0
    0.7466    0.2482   -0.2165 C   0  0  0  0  0  0  0  0  0  0  0  0
    1.3808   -0.2706    0.9044 C   0  0  0  0  0  0  0  0  0  0  0  0
    2.2748   -1.3146    0.7690 C   0  0  0  0  0  0  0  0  0  0  0  0
    1.0896    0.3011    2.2680 C   0  0  0  0  0  0  0  0  0  0  0  0
   -0.1650    1.3039   -0.0817 N   0  0  0  0  0  0  0  0  0  0  0  0
    0.2790    2.5773   -0.1491 C   0  0  0  0  0  0  0  0  0  0  0  0
    1.4580    2.8236   -0.3249 O   0  0  0  0  0  0  0  0  0  0  0  0
   -0.7111    3.6592   -0.0022 C   0  0  1  0  0  0  0  0  0  0  0  0
   -0.3393    4.9940   -0.0593 C   0  0  0  0  0  0  0  0  0  0  0  0
   -1.0181    7.3971   -0.1813 C   0  0  2  0  0  0  0  0  0  0  0  0
   -0.0761    7.6524    0.3042 H   0  0  0  0  0  0  0  0  0  0  0  0
   -2.1786    8.2144    0.4309 C   0  0  0  0  0  0  0  0  0  0  0  0
   -2.7421    9.0506   -0.7584 C   0  0  2  0  0  0  0  0  0  0  0  0
   -3.3293    9.9282   -0.4879 H   0  0  0  0  0  0  0  0  0  0  0  0
   -3.4583    8.0047   -1.6663 C   0  0  0  0  0  0  0  0  0  0  0  0
   -2.3113    7.1719   -2.2830 C   0  0  0  0  0  0  0  0  0  0  0  0
   -0.9896    7.8166   -1.6829 C   0  0  1  0  0  0  0  0  0  0  0  0
   -1.4274    9.3198   -1.5725 C   0  0  0  0  0  0  0  0  0  0  0  0
   -1.7170    9.9352   -2.9429 C   0  0  0  0  0  0  0  0  0  0  0  0
   -0.4208   10.1537   -0.7773 C   0  0  0  0  0  0  0  0  0  0  0  0
    0.3124    7.5290   -2.4331 C   0  0  0  0  0  0  0  0  0  0  0  0
   -2.1094    3.2604    0.2069 C   0  0  0  0  0  0  0  0  0  0  0  0
   -2.3985    1.9698    0.2460 N   0  0  0  0  0  0  0  0  0  0  0  0
   -1.4639    1.0329    0.1123 C   0  0  0  0  0  0  0  0  0  0  0  0
   -1.8073   -0.1349    0.1642 O   0  0  0  0  0  0  0  0  0  0  0  0
   -3.0779    4.1891    0.3507 O   0  0  0  0  0  0  0  0  0  0  0  0
    0.3403    0.2871   -2.6917 C   0  0  0  0  0  0  0  0  0  0  0  0
    4.5298   -2.5681   -0.7777 H   0  0  0  0  0  0  0  0  0  0  0  0
    3.5132   -3.5810    0.2754 H   0  0  0  0  0  0  0  0  0  0  0  0
    3.2503   -3.5833   -1.4851 H   0  0  0  0  0  0  0  0  0  0  0  0
    2.1359   -1.7264   -2.5777 H   0  0  0  0  0  0  0  0  0  0  0  0
    2.7648   -1.7217    1.6411 H   0  0  0  0  0  0  0  0  0  0  0  0
    0.2545   -0.2369    2.7167 H   0  0  0  0  0  0  0  0  0  0  0  0
    1.9708    0.1975    2.9012 H   0  0  0  0  0  0  0  0  0  0  0  0
    0.8329    1.3561    2.1725 H   0  0  0  0  0  0  0  0  0  0  0  0
    0.7060    5.2619   -0.1057 H   0  0  0  0  0  0  0  0  0  0  0  0
   -0.7957    3.9048    0.9634 H   0  0  0  0  0  0  0  0  0  0  0  0
   -2.9464    7.5481    0.8243 H   0  0  0  0  0  0  0  0  0  0  0  0
   -1.8073    8.8714    1.2174 H   0  0  0  0  0  0  0  0  0  0  0  0
   -4.1120    7.3681   -1.0700 H   0  0  0  0  0  0  0  0  0  0  0  0
   -4.0283    8.5069   -2.4480 H   0  0  0  0  0  0  0  0  0  0  0  0
   -2.4010    6.1259   -1.9898 H   0  0  0  0  0  0  0  0  0  0  0  0
   -2.3170    7.2630   -3.3692 H   0  0  0  0  0  0  0  0  0  0  0  0
   -2.2134   10.8966   -2.8119 H   0  0  0  0  0  0  0  0  0  0  0  0
   -0.7803   10.0804   -3.4812 H   0  0  0  0  0  0  0  0  0  0  0  0
   -2.3633    9.2671   -3.5121 H   0  0  0  0  0  0  0  0  0  0  0  0
   -0.1720    9.6364    0.1493 H   0  0  0  0  0  0  0  0  0  0  0  0
    0.4835   10.2934   -1.3696 H   0  0  0  0  0  0  0  0  0  0  0  0
   -0.8568   11.1253   -0.5453 H   0  0  0  0  0  0  0  0  0  0  0  0
    0.5048    6.4561   -2.4290 H   0  0  0  0  0  0  0  0  0  0  0  0
    0.2238    7.8783   -3.4618 H   0  0  0  0  0  0  0  0  0  0  0  0
    1.1364    8.0477   -1.9429 H   0  0  0  0  0  0  0  0  0  0  0  0
   -3.9614    3.8190    0.4828 H   0  0  0  0  0  0  0  0  0  0  0  0
    0.9417    1.0989   -3.1009 H   0  0  0  0  0  0  0  0  0  0  0  0
    0.2297   -0.4965   -3.4413 H   0  0  0  0  0  0  0  0  0  0  0  0
   -0.6432    0.6670   -2.4154 H   0  0  0  0  0  0  0  0  0  0  0  0
   -1.3504    5.9365   -0.0500 N   0  3  0  0  0  0  0  0  0  0  0  0
   -2.3285    5.6393    0.0467 H   0  0  0  0  0  0  0  0  0  0  0  0
  1  2  1  0  0  0  0
  1 32  1  0  0  0  0
  1 33  1  0  0  0  0
  1 34  1  0  0  0  0
  2  7  2  0  0  0  0
  2  3  1  0  0  0  0
  3  4  2  0  0  0  0
  3 35  1  0  0  0  0
  4  5  1  0  0  0  0
  4 31  1  0  0  0  0
  5  6  2  0  0  0  0
  5  9  1  0  0  0  0
  6  7  1  0  0  0  0
  6  8  1  0  0  0  0
  7 36  1  0  0  0  0
  8 37  1  0  0  0  0
  8 38  1  0  0  0  0
  8 39  1  0  0  0  0
  9 28  1  0  0  0  0
  9 10  1  0  0  0  0
 10 11  2  0  0  0  0
 10 12  1  0  0  0  0
 12 26  1  0  0  0  0
 12 41  1  0  0  0  0
 12 13  1  0  0  0  0
 13 40  1  0  0  0  0
 13 61  2  0  0  0  0
 14 15  1  0  0  0  0
 14 21  1  0  0  0  0
 14 16  1  0  0  0  0
 14 61  1  0  0  0  0
 16 17  1  0  0  0  0
 16 42  1  0  0  0  0
 16 43  1  0  0  0  0
 17 18  1  0  0  0  0
 17 22  1  0  0  0  0
 17 19  1  0  0  0  0
 19 20  1  0  0  0  0
 19 44  1  0  0  0  0
 19 45  1  0  0  0  0
 20 21  1  0  0  0  0
 20 46  1  0  0  0  0
 20 47  1  0  0  0  0
 21 22  1  0  0  0  0
 21 25  1  0  0  0  0
 22 23  1  0  0  0  0
 22 24  1  0  0  0  0
 23 48  1  0  0  0  0
 23 49  1  0  0  0  0
 23 50  1  0  0  0  0
 24 51  1  0  0  0  0
 24 52  1  0  0  0  0
 24 53  1  0  0  0  0
 25 54  1  0  0  0  0
 25 55  1  0  0  0  0
 25 56  1  0  0  0  0
 26 27  2  0  0  0  0
 26 30  1  0  0  0  0
 27 28  1  0  0  0  0
 28 29  2  0  0  0  0
 30 57  1  0  0  0  0
 31 58  1  0  0  0  0
 31 59  1  0  0  0  0
 31 60  1  0  0  0  0
 61 62  1  0  0  0  0
M  CHG  1  61   1
M  END
$$$$
ZINC04397313
  -OEChem-08230709463D

 61 64  0     1  0  0  0  0  0999 V2000
    5.8645   -1.1786   -0.9367 C   0  0  0  0  0  0  0  0  0  0  0  0
    4.6030   -0.3766   -0.7461 C   0  0  0  0  0  0  0  0  0  0  0  0
    3.8278   -0.0393   -1.8404 C   0  0  0  0  0  0  0  0  0  0  0  0
    2.6711    0.6956   -1.6689 C   0  0  0  0  0  0  0  0  0  0  0  0
    2.2869    1.0958   -0.3961 C   0  0  0  0  0  0  0  0  0  0  0  0
    3.0701    0.7601    0.7001 C   0  0  0  0  0  0  0  0  0  0  0  0
    4.2227    0.0201    0.5228 C   0  0  0  0  0  0  0  0  0  0  0  0
    2.6599    1.1979    2.0825 C   0  0  0  0  0  0  0  0  0  0  0  0
    1.1141    1.8420   -0.2189 N   0  0  0  0  0  0  0  0  0  0  0  0
    1.1720    3.1903   -0.2621 C   0  0  0  0  0  0  0  0  0  0  0  0
    2.2260    3.7686   -0.4523 O   0  0  0  0  0  0  0  0  0  0  0  0
   -0.0832    3.9388   -0.0707 C   0  0  1  0  0  0  0  0  0  0  0  0
   -0.1118    5.3250   -0.1007 C   0  0  0  0  0  0  0  0  0  0  0  0
   -1.2897    5.9750   -0.0574 N   0  0  0  0  0  0  0  0  0  0  0  0
   -1.3244    7.4359   -0.1606 C   0  0  2  0  0  0  0  0  0  0  0  0
   -0.4463    7.8708    0.3168 H   0  0  0  0  0  0  0  0  0  0  0  0
   -2.6168    7.9909    0.4807 C   0  0  0  0  0  0  0  0  0  0  0  0
   -3.3580    8.7115   -0.6866 C   0  0  2  0  0  0  0  0  0  0  0  0
   -4.1070    9.4472   -0.3934 H   0  0  0  0  0  0  0  0  0  0  0  0
   -3.8612    7.5545   -1.6028 C   0  0  0  0  0  0  0  0  0  0  0  0
   -2.5790    6.9816   -2.2487 C   0  0  0  0  0  0  0  0  0  0  0  0
   -1.4065    7.8735   -1.6550 C   0  0  1  0  0  0  0  0  0  0  0  0
   -2.1391    9.2543   -1.5131 C   0  0  0  0  0  0  0  0  0  0  0  0
   -2.5702    9.8171   -2.8689 C   0  0  0  0  0  0  0  0  0  0  0  0
   -1.3104   10.2645   -0.7171 C   0  0  0  0  0  0  0  0  0  0  0  0
   -0.0856    7.8678   -2.4271 C   0  0  0  0  0  0  0  0  0  0  0  0
   -1.3027    3.1508    0.1529 C   0  0  0  0  0  0  0  0  0  0  0  0
   -1.2080    1.8311    0.1647 N   0  0  0  0  0  0  0  0  0  0  0  0
   -0.0473    1.2053   -0.0089 C   0  0  0  0  0  0  0  0  0  0  0  0
   -0.0396   -0.0127    0.0197 O   0  0  0  0  0  0  0  0  0  0  0  0
   -2.4933    3.7589    0.3370 O   0  0  0  0  0  0  0  0  0  0  0  0
    1.8271    1.0632   -2.8621 C   0  0  0  0  0  0  0  0  0  0  0  0
    6.7047   -0.5023   -1.0943 H   0  0  0  0  0  0  0  0  0  0  0  0
    6.0474   -1.7846   -0.0493 H   0  0  0  0  0  0  0  0  0  0  0  0
    5.7540   -1.8290   -1.8044 H   0  0  0  0  0  0  0  0  0  0  0  0
    4.1274   -0.3506   -2.8302 H   0  0  0  0  0  0  0  0  0  0  0  0
    4.8298   -0.2454    1.3756 H   0  0  0  0  0  0  0  0  0  0  0  0
    2.0255    0.4341    2.5322 H   0  0  0  0  0  0  0  0  0  0  0  0
    3.5487    1.3401    2.6973 H   0  0  0  0  0  0  0  0  0  0  0  0
    2.1089    2.1361    2.0180 H   0  0  0  0  0  0  0  0  0  0  0  0
    0.8111    5.8830   -0.1588 H   0  0  0  0  0  0  0  0  0  0  0  0
   -0.2115    4.1313    0.9022 H   0  0  0  0  0  0  0  0  0  0  0  0
   -3.2264    7.1767    0.8727 H   0  0  0  0  0  0  0  0  0  0  0  0
   -2.3741    8.6986    1.2734 H   0  0  0  0  0  0  0  0  0  0  0  0
   -4.3618    6.7898   -1.0089 H   0  0  0  0  0  0  0  0  0  0  0  0
   -4.5342    7.9411   -2.3682 H   0  0  0  0  0  0  0  0  0  0  0  0
   -2.4492    5.9353   -1.9723 H   0  0  0  0  0  0  0  0  0  0  0  0
   -2.6209    7.0850   -3.3330 H   0  0  0  0  0  0  0  0  0  0  0  0
   -3.2497   10.6553   -2.7149 H   0  0  0  0  0  0  0  0  0  0  0  0
   -1.6916   10.1576   -3.4169 H   0  0  0  0  0  0  0  0  0  0  0  0
   -3.0763    9.0394   -3.4409 H   0  0  0  0  0  0  0  0  0  0  0  0
   -0.9464    9.7957    0.1972 H   0  0  0  0  0  0  0  0  0  0  0  0
   -0.4632   10.5938   -1.3187 H   0  0  0  0  0  0  0  0  0  0  0  0
   -1.9311   11.1235   -0.4627 H   0  0  0  0  0  0  0  0  0  0  0  0
    0.3211    6.8566   -2.4439 H   0  0  0  0  0  0  0  0  0  0  0  0
   -0.2603    8.2062   -3.4484 H   0  0  0  0  0  0  0  0  0  0  0  0
    0.6235    8.5365   -1.9390 H   0  0  0  0  0  0  0  0  0  0  0  0
   -3.2299    3.1479    0.4753 H   0  0  0  0  0  0  0  0  0  0  0  0
    2.1600    2.0213   -3.2612 H   0  0  0  0  0  0  0  0  0  0  0  0
    1.9281    0.2953   -3.6290 H   0  0  0  0  0  0  0  0  0  0  0  0
    0.7829    1.1389   -2.5590 H   0  0  0  0  0  0  0  0  0  0  0  0
  1  2  1  0  0  0  0
  1 33  1  0  0  0  0
  1 34  1  0  0  0  0
  1 35  1  0  0  0  0
  2  7  2  0  0  0  0
  2  3  1  0  0  0  0
  3  4  2  0  0  0  0
  3 36  1  0  0  0  0
  4  5  1  0  0  0  0
  4 32  1  0  0  0  0
  5  6  2  0  0  0  0
  5  9  1  0  0  0  0
  6  7  1  0  0  0  0
  6  8  1  0  0  0  0
  7 37  1  0  0  0  0
  8 38  1  0  0  0  0
  8 39  1  0  0  0  0
  8 40  1  0  0  0  0
  9 29  1  0  0  0  0
  9 10  1  0  0  0  0
 10 11  2  0  0  0  0
 10 12  1  0  0  0  0
 12 27  1  0  0  0  0
 12 42  1  0  0  0  0
 12 13  1  0  0  0  0
 13 41  1  0  0  0  0
 13 14  2  0  0  0  0
 14 15  1  0  0  0  0
 15 16  1  0  0  0  0
 15 22  1  0  0  0  0
 15 17  1  0  0  0  0
 17 18  1  0  0  0  0
 17 43  1  0  0  0  0
 17 44  1  0  0  0  0
 18 19  1  0  0  0  0
 18 23  1  0  0  0  0
 18 20  1  0  0  0  0
 20 21  1  0  0  0  0
 20 45  1  0  0  0  0
 20 46  1  0  0  0  0
 21 22  1  0  0  0  0
 21 47  1  0  0  0  0
 21 48  1  0  0  0  0
 22 23  1  0  0  0  0
 22 26  1  0  0  0  0
 23 24  1  0  0  0  0
 23 25  1  0  0  0  0
 24 49  1  0  0  0  0
 24 50  1  0  0  0  0
 24 51  1  0  0  0  0
 25 52  1  0  0  0  0
 25 53  1  0  0  0  0
 25 54  1  0  0  0  0
 26 55  1  0  0  0  0
 26 56  1  0  0  0  0
 26 57  1  0  0  0  0
 27 28  2  0  0  0  0
 27 31  1  0  0  0  0
 28 29  1  0  0  0  0
 29 30  2  0  0  0  0
 31 58  1  0  0  0  0
 32 59  1  0  0  0  0
 32 60  1  0  0  0  0
 32 61  1  0  0  0  0
M  END
$$$$
ZINC04410848
  -OEChem-08230709463D

 55 56  0     0  0  0  0  0  0999 V2000
    1.8236    0.8811    1.6596 C   0  0  0  0  0  0  0  0  0  0  0  0
    0.3913    0.3443    1.6948 C   0  0  0  0  0  0  0  0  0  0  0  0
   -0.2385    0.6602    3.0529 C   0  0  0  0  0  0  0  0  0  0  0  0
    0.4089   -1.1705    1.4808 C   0  0  0  0  0  0  0  0  0  0  0  0
   -0.4289    1.0065    0.5859 C   0  0  0  0  0  0  0  0  0  0  0  0
    0.2009    0.6907   -0.7722 C   0  0  0  0  0  0  0  0  0  0  0  0
   -0.6193    1.3529   -1.8811 C   0  0  0  0  0  0  0  0  0  0  0  0
   -0.6370    2.8677   -1.6671 C   0  0  0  0  0  0  0  0  0  0  0  0
   -1.2668    3.1836   -0.3090 C   0  0  0  0  0  0  0  0  0  0  0  0
   -0.4466    2.5214    0.7999 C   0  0  0  0  0  0  0  0  0  0  0  0
    0.7223    3.3771   -1.7005 O   0  0  0  0  0  0  0  0  0  0  0  0
    0.8917    4.6331   -2.1429 C   0  0  0  0  0  0  0  0  0  0  0  0
   -0.0642    5.2851   -2.4907 O   0  0  0  0  0  0  0  0  0  0  0  0
    2.2741    5.2298   -2.2057 C   0  0  0  0  0  0  0  0  0  0  0  0
    2.1882    6.6604   -2.7412 C   0  0  0  0  0  0  0  0  0  0  0  0
    3.5706    7.2571   -2.8041 C   0  0  0  0  0  0  0  0  0  0  0  0
    4.5300    6.6026   -2.4550 O   0  0  0  0  0  0  0  0  0  0  0  0
    3.7406    8.5182   -3.2483 N   0  0  0  0  0  0  0  0  0  0  0  0
    5.0027    9.1087   -3.2035 C   0  0  0  0  0  0  0  0  0  0  0  0
    5.8781    8.7979   -2.1675 C   0  0  0  0  0  0  0  0  0  0  0  0
    7.1268    9.3753   -2.1228 C   0  0  0  0  0  0  0  0  0  0  0  0
    7.5111   10.2832   -3.1141 C   0  0  0  0  0  0  0  0  0  0  0  0
    6.6270   10.5972   -4.1506 C   0  0  0  0  0  0  0  0  0  0  0  0
    5.3819   10.0119   -4.1918 C   0  0  0  0  0  0  0  0  0  0  0  0
    8.8461   10.9078   -3.0668 C   0  0  0  0  0  0  0  0  0  0  0  0
    9.1788   11.6964   -3.9293 O   0  0  0  0  0  0  0  0  0  0  0  0
    1.8110    1.9603    1.8121 H   0  0  0  0  0  0  0  0  0  0  0  0
    2.4079    0.4093    2.4496 H   0  0  0  0  0  0  0  0  0  0  0  0
    2.2723    0.6561    0.6921 H   0  0  0  0  0  0  0  0  0  0  0  0
   -1.2589    0.2778    3.0780 H   0  0  0  0  0  0  0  0  0  0  0  0
    0.3458    0.1884    3.8429 H   0  0  0  0  0  0  0  0  0  0  0  0
   -0.2511    1.7394    3.2054 H   0  0  0  0  0  0  0  0  0  0  0  0
    0.8576   -1.3956    0.5132 H   0  0  0  0  0  0  0  0  0  0  0  0
    0.9933   -1.6423    2.2708 H   0  0  0  0  0  0  0  0  0  0  0  0
   -0.6115   -1.5530    1.5058 H   0  0  0  0  0  0  0  0  0  0  0  0
   -1.4493    0.6241    0.6110 H   0  0  0  0  0  0  0  0  0  0  0  0
    0.2135   -0.3886   -0.9247 H   0  0  0  0  0  0  0  0  0  0  0  0
    1.2213    1.0731   -0.7973 H   0  0  0  0  0  0  0  0  0  0  0  0
   -0.1707    1.1278   -2.8487 H   0  0  0  0  0  0  0  0  0  0  0  0
   -1.6397    0.9704   -1.8561 H   0  0  0  0  0  0  0  0  0  0  0  0
   -1.2213    3.3395   -2.4571 H   0  0  0  0  0  0  0  0  0  0  0  0
   -1.2794    4.2628   -0.1565 H   0  0  0  0  0  0  0  0  0  0  0  0
   -2.2872    2.8012   -0.2839 H   0  0  0  0  0  0  0  0  0  0  0  0
    0.5738    2.9038    0.7749 H   0  0  0  0  0  0  0  0  0  0  0  0
   -0.8953    2.7464    1.7675 H   0  0  0  0  0  0  0  0  0  0  0  0
    2.7106    5.2412   -1.2070 H   0  0  0  0  0  0  0  0  0  0  0  0
    2.8986    4.6307   -2.8684 H   0  0  0  0  0  0  0  0  0  0  0  0
    1.7516    6.6490   -3.7399 H   0  0  0  0  0  0  0  0  0  0  0  0
    1.5636    7.2595   -2.0785 H   0  0  0  0  0  0  0  0  0  0  0  0
    2.9849    9.0149   -3.5991 H   0  0  0  0  0  0  0  0  0  0  0  0
    5.5789    8.0999   -1.3996 H   0  0  0  0  0  0  0  0  0  0  0  0
    7.8073    9.1305   -1.3207 H   0  0  0  0  0  0  0  0  0  0  0  0
    6.9207   11.2978   -4.9182 H   0  0  0  0  0  0  0  0  0  0  0  0
    4.6985   10.2536   -4.9924 H   0  0  0  0  0  0  0  0  0  0  0  0
    9.6970   10.6041   -2.0671 O   0  5  0  0  0  0  0  0  0  0  0  0
  1  2  1  0  0  0  0
  1 27  1  0  0  0  0
  1 28  1  0  0  0  0
  1 29  1  0  0  0  0
  2  3  1  0  0  0  0
  2  4  1  0  0  0  0
  2  5  1  0  0  0  0
  3 30  1  0  0  0  0
  3 31  1  0  0  0  0
  3 32  1  0  0  0  0
  4 33  1  0  0  0  0
  4 34  1  0  0  0  0
  4 35  1  0  0  0  0
  5 10  1  0  0  0  0
  5  6  1  0  0  0  0
  5 36  1  0  0  0  0
  6  7  1  0  0  0  0
  6 37  1  0  0  0  0
  6 38  1  0  0  0  0
  7  8  1  0  0  0  0
  7 39  1  0  0  0  0
  7 40  1  0  0  0  0
  8  9  1  0  0  0  0
  8 11  1  0  0  0  0
  8 41  1  0  0  0  0
  9 10  1  0  0  0  0
  9 42  1  0  0  0  0
  9 43  1  0  0  0  0
 10 44  1  0  0  0  0
 10 45  1  0  0  0  0
 11 12  1  0  0  0  0
 12 13  2  0  0  0  0
 12 14  1  0  0  0  0
 14 15  1  0  0  0  0
 14 46  1  0  0  0  0
 14 47  1  0  0  0  0
 15 16  1  0  0  0  0
 15 48  1  0  0  0  0
 15 49  1  0  0  0  0
 16 17  2  0  0  0  0
 16 18  1  0  0  0  0
 18 19  1  0  0  0  0
 18 50  1  0  0  0  0
 19 24  2  0  0  0  0
 19 20  1  0  0  0  0
 20 21  2  0  0  0  0
 20 51  1  0  0  0  0
 21 22  1  0  0  0  0
 21 52  1  0  0  0  0
 22 23  2  0  0  0  0
 22 25  1  0  0  0  0
 23 24  1  0  0  0  0
 23 53  1  0  0  0  0
 24 54  1  0  0  0  0
 25 26  2  0  0  0  0
 25 55  1  0  0  0  0
M  CHG  1  55  -1
M  END
$$$$
ZINC04427830
  -OEChem-08230709463D

 52 53  0     0  0  0  0  0  0999 V2000
    4.0049   14.9338   -3.1436 C   0  0  0  0  0  0  0  0  0  0  0  0
    4.2256   13.4966   -3.3228 N   0  0  0  0  0  0  0  0  0  0  0  0
    5.3169   13.0242   -4.1784 C   0  0  0  0  0  0  0  0  0  0  0  0
    3.3982   12.5797   -2.6798 C   0  0  0  0  0  0  0  0  0  0  0  0
    2.2964   13.0274   -1.9563 C   0  0  0  0  0  0  0  0  0  0  0  0
    1.4762   12.1249   -1.3189 C   0  0  0  0  0  0  0  0  0  0  0  0
    1.7513   10.7541   -1.3988 C   0  0  0  0  0  0  0  0  0  0  0  0
    2.8641   10.3087   -2.1229 C   0  0  0  0  0  0  0  0  0  0  0  0
    3.6756   11.2180   -2.7619 C   0  0  0  0  0  0  0  0  0  0  0  0
    0.8788    9.7869   -0.7202 C   0  0  0  0  0  0  0  0  0  0  0  0
    0.7157    8.5438   -1.2350 C   0  0  0  0  0  0  0  0  0  0  0  0
    1.3101    8.2033   -2.5314 C   0  0  0  0  0  0  0  0  0  0  0  0
    2.2056    7.3827   -2.5930 O   0  0  0  0  0  0  0  0  0  0  0  0
   -0.0204    7.5849   -0.5290 N   0  0  0  0  0  0  0  0  0  0  0  0
   -0.2801    6.3873   -1.0901 C   0  0  0  0  0  0  0  0  0  0  0  0
    0.0567    6.1677   -2.2378 O   0  0  0  0  0  0  0  0  0  0  0  0
   -0.9732    5.3424   -0.3116 C   0  0  0  0  0  0  0  0  0  0  0  0
   -1.3611    5.5936    1.0069 C   0  0  0  0  0  0  0  0  0  0  0  0
   -2.0106    4.6134    1.7336 C   0  0  0  0  0  0  0  0  0  0  0  0
   -2.2830    3.3785    1.1510 C   0  0  0  0  0  0  0  0  0  0  0  0
   -1.8928    3.1238   -0.1610 C   0  0  0  0  0  0  0  0  0  0  0  0
   -1.2431    4.1006   -0.8921 C   0  0  0  0  0  0  0  0  0  0  0  0
   -2.1562    1.9149   -0.7256 O   0  0  0  0  0  0  0  0  0  0  0  0
   -1.7331    1.7241   -2.0771 C   0  0  0  0  0  0  0  0  0  0  0  0
   -2.9266    2.4185    1.8658 O   0  0  0  0  0  0  0  0  0  0  0  0
   -2.1144    1.5210    2.6252 C   0  0  0  0  0  0  0  0  0  0  0  0
   -2.3889    4.8574    3.0170 O   0  0  0  0  0  0  0  0  0  0  0  0
   -2.0829    6.1478    3.5493 C   0  0  0  0  0  0  0  0  0  0  0  0
    4.5832   15.2866   -2.2897 H   0  0  0  0  0  0  0  0  0  0  0  0
    4.3217   15.4647   -4.0413 H   0  0  0  0  0  0  0  0  0  0  0  0
    2.9455   15.1193   -2.9666 H   0  0  0  0  0  0  0  0  0  0  0  0
    5.2652   11.9391   -4.2673 H   0  0  0  0  0  0  0  0  0  0  0  0
    5.2248   13.4745   -5.1667 H   0  0  0  0  0  0  0  0  0  0  0  0
    6.2728   13.3075   -3.7378 H   0  0  0  0  0  0  0  0  0  0  0  0
    2.0851   14.0848   -1.8950 H   0  0  0  0  0  0  0  0  0  0  0  0
    0.6218   12.4731   -0.7576 H   0  0  0  0  0  0  0  0  0  0  0  0
    3.0826    9.2527   -2.1834 H   0  0  0  0  0  0  0  0  0  0  0  0
    4.5314   10.8750   -3.3242 H   0  0  0  0  0  0  0  0  0  0  0  0
    0.3672   10.0664    0.1889 H   0  0  0  0  0  0  0  0  0  0  0  0
   -0.3435    7.7823    0.3641 H   0  0  0  0  0  0  0  0  0  0  0  0
   -1.1540    6.5529    1.4577 H   0  0  0  0  0  0  0  0  0  0  0  0
   -0.9446    3.9040   -1.9113 H   0  0  0  0  0  0  0  0  0  0  0  0
   -2.0039    0.7202   -2.4044 H   0  0  0  0  0  0  0  0  0  0  0  0
   -0.6520    1.8475   -2.1403 H   0  0  0  0  0  0  0  0  0  0  0  0
   -2.2207    2.4589   -2.7177 H   0  0  0  0  0  0  0  0  0  0  0  0
   -2.7518    0.8069    3.1467 H   0  0  0  0  0  0  0  0  0  0  0  0
   -1.4409    0.9857    1.9560 H   0  0  0  0  0  0  0  0  0  0  0  0
   -1.5310    2.0858    3.3524 H   0  0  0  0  0  0  0  0  0  0  0  0
   -2.5731    6.9141    2.9488 H   0  0  0  0  0  0  0  0  0  0  0  0
   -2.4380    6.2100    4.5780 H   0  0  0  0  0  0  0  0  0  0  0  0
   -1.0043    6.3036    3.5272 H   0  0  0  0  0  0  0  0  0  0  0  0
    0.8637    8.8003   -3.6558 O   0  5  0  0  0  0  0  0  0  0  0  0
  1  2  1  0  0  0  0
  1 29  1  0  0  0  0
  1 30  1  0  0  0  0
  1 31  1  0  0  0  0
  2  3  1  0  0  0  0
  2  4  1  0  0  0  0
  3 32  1  0  0  0  0
  3 33  1  0  0  0  0
  3 34  1  0  0  0  0
  4  9  2  0  0  0  0
  4  5  1  0  0  0  0
  5  6  2  0  0  0  0
  5 35  1  0  0  0  0
  6  7  1  0  0  0  0
  6 36  1  0  0  0  0
  7  8  2  0  0  0  0
  7 10  1  0  0  0  0
  8  9  1  0  0  0  0
  8 37  1  0  0  0  0
  9 38  1  0  0  0  0
 10 11  2  0  0  0  0
 10 39  1  0  0  0  0
 11 12  1  0  0  0  0
 11 14  1  0  0  0  0
 12 13  2  0  0  0  0
 12 52  1  0  0  0  0
 14 15  1  0  0  0  0
 14 40  1  0  0  0  0
 15 16  2  0  0  0  0
 15 17  1  0  0  0  0
 17 22  2  0  0  0  0
 17 18  1  0  0  0  0
 18 19  2  0  0  0  0
 18 41  1  0  0  0  0
 19 20  1  0  0  0  0
 19 27  1  0  0  0  0
 20 21  2  0  0  0  0
 20 25  1  0  0  0  0
 21 22  1  0  0  0  0
 21 23  1  0  0  0  0
 22 42  1  0  0  0  0
 23 24  1  0  0  0  0
 24 43  1  0  0  0  0
 24 44  1  0  0  0  0
 24 45  1  0  0  0  0
 25 26  1  0  0  0  0
 26 46  1  0  0  0  0
 26 47  1  0  0  0  0
 26 48  1  0  0  0  0
 27 28  1  0  0  0  0
 28 49  1  0  0  0  0
 28 50  1  0  0  0  0
 28 51  1  0  0  0  0
M  CHG  1  52  -1
M  END
$$$$
ZINC04466330
  -OEChem-08230709463D

 53 56  0     0  0  0  0  0  0999 V2000
   -4.3462    4.0492   -6.4865 C   0  0  0  0  0  0  0  0  0  0  0  0
   -3.2218    3.2792   -5.8433 C   0  0  0  0  0  0  0  0  0  0  0  0
   -3.0202    1.9506   -6.1698 C   0  0  0  0  0  0  0  0  0  0  0  0
   -1.9907    1.2421   -5.5822 C   0  0  0  0  0  0  0  0  0  0  0  0
   -1.1573    1.8653   -4.6623 C   0  0  0  0  0  0  0  0  0  0  0  0
   -1.3657    3.1984   -4.3327 C   0  0  0  0  0  0  0  0  0  0  0  0
   -2.3941    3.9026   -4.9276 C   0  0  0  0  0  0  0  0  0  0  0  0
   -0.1141    1.1506   -4.0651 N   0  0  0  0  0  0  0  0  0  0  0  0
   -0.1396    0.4922   -2.8621 C   0  0  0  0  0  0  0  0  0  0  0  0
    1.0109   -0.0799   -2.5828 N   0  0  0  0  0  0  0  0  0  0  0  0
    1.9240    0.1124   -3.5455 C   0  0  0  0  0  0  0  0  0  0  0  0
    3.1587   -0.3295   -3.5689 N   0  0  0  0  0  0  0  0  0  0  0  0
    3.6360   -1.0815   -2.5301 C   0  0  0  0  0  0  0  0  0  0  0  0
    3.3864   -0.6949   -1.2111 C   0  0  0  0  0  0  0  0  0  0  0  0
    3.8706   -1.4575   -0.1691 C   0  0  0  0  0  0  0  0  0  0  0  0
    4.6019   -2.6036   -0.4277 C   0  0  0  0  0  0  0  0  0  0  0  0
    4.8534   -2.9922   -1.7314 C   0  0  0  0  0  0  0  0  0  0  0  0
    4.3703   -2.2421   -2.7836 C   0  0  0  0  0  0  0  0  0  0  0  0
    5.6508   -4.2419   -2.0029 C   0  0  0  0  0  0  0  0  0  0  0  0
    1.2347    0.9461   -4.5909 C   0  0  0  0  0  0  0  0  0  0  0  0
    1.9624    2.2811   -4.8168 C   0  0  0  0  0  0  0  0  0  0  0  0
    1.4830    2.6943   -6.2328 C   0  0  0  0  0  0  0  0  0  0  0  0
    1.3905    1.3630   -7.0087 C   0  0  0  0  0  0  0  0  0  0  0  0
    1.2185    0.2512   -5.9549 C   0  0  0  0  0  0  0  0  0  0  0  0
   -1.5502    0.4267   -1.8082 S   0  0  0  0  0  0  0  0  0  0  0  0
   -0.8840   -0.5711   -0.4530 C   0  0  0  0  0  0  0  0  0  0  0  0
   -1.9463   -0.7635    0.5985 C   0  0  0  0  0  0  0  0  0  0  0  0
   -3.0415   -0.2761    0.4471 O   0  0  0  0  0  0  0  0  0  0  0  0
   -5.2466    3.9522   -5.8799 H   0  0  0  0  0  0  0  0  0  0  0  0
   -4.0701    5.1010   -6.5614 H   0  0  0  0  0  0  0  0  0  0  0  0
   -4.5353    3.6514   -7.4836 H   0  0  0  0  0  0  0  0  0  0  0  0
   -3.6689    1.4665   -6.8849 H   0  0  0  0  0  0  0  0  0  0  0  0
   -1.8340    0.2044   -5.8373 H   0  0  0  0  0  0  0  0  0  0  0  0
   -0.7220    3.6848   -3.6148 H   0  0  0  0  0  0  0  0  0  0  0  0
   -2.5544    4.9402   -4.6745 H   0  0  0  0  0  0  0  0  0  0  0  0
    2.8158    0.1993   -1.0079 H   0  0  0  0  0  0  0  0  0  0  0  0
    3.6783   -1.1598    0.8511 H   0  0  0  0  0  0  0  0  0  0  0  0
    4.9784   -3.1973    0.3922 H   0  0  0  0  0  0  0  0  0  0  0  0
    4.5629   -2.5494   -3.8009 H   0  0  0  0  0  0  0  0  0  0  0  0
    4.9765   -5.0955   -2.0708 H   0  0  0  0  0  0  0  0  0  0  0  0
    6.1919   -4.1306   -2.9425 H   0  0  0  0  0  0  0  0  0  0  0  0
    6.3607   -4.4033   -1.1916 H   0  0  0  0  0  0  0  0  0  0  0  0
    1.6566    3.0185   -4.0747 H   0  0  0  0  0  0  0  0  0  0  0  0
    3.0431    2.1399   -4.8005 H   0  0  0  0  0  0  0  0  0  0  0  0
    2.2084    3.3590   -6.7018 H   0  0  0  0  0  0  0  0  0  0  0  0
    0.5051    3.1728   -6.1794 H   0  0  0  0  0  0  0  0  0  0  0  0
    2.3047    1.1989   -7.5791 H   0  0  0  0  0  0  0  0  0  0  0  0
    0.5302    1.3797   -7.6778 H   0  0  0  0  0  0  0  0  0  0  0  0
    2.0420   -0.4596   -6.0228 H   0  0  0  0  0  0  0  0  0  0  0  0
    0.2683   -0.2620   -6.1024 H   0  0  0  0  0  0  0  0  0  0  0  0
   -0.5721   -1.5426   -0.8363 H   0  0  0  0  0  0  0  0  0  0  0  0
   -0.0264   -0.0613   -0.0140 H   0  0  0  0  0  0  0  0  0  0  0  0
   -1.6759   -1.4764    1.7032 O   0  5  0  0  0  0  0  0  0  0  0  0
  1  2  1  0  0  0  0
  1 29  1  0  0  0  0
  1 30  1  0  0  0  0
  1 31  1  0  0  0  0
  2  7  2  0  0  0  0
  2  3  1  0  0  0  0
  3  4  2  0  0  0  0
  3 32  1  0  0  0  0
  4  5  1  0  0  0  0
  4 33  1  0  0  0  0
  5  6  2  0  0  0  0
  5  8  1  0  0  0  0
  6  7  1  0  0  0  0
  6 34  1  0  0  0  0
  7 35  1  0  0  0  0
  8 20  1  0  0  0  0
  8  9  1  0  0  0  0
  9 10  2  0  0  0  0
  9 25  1  0  0  0  0
 10 11  1  0  0  0  0
 11 12  2  0  0  0  0
 11 20  1  0  0  0  0
 12 13  1  0  0  0  0
 13 18  2  0  0  0  0
 13 14  1  0  0  0  0
 14 15  2  0  0  0  0
 14 36  1  0  0  0  0
 15 16  1  0  0  0  0
 15 37  1  0  0  0  0
 16 17  2  0  0  0  0
 16 38  1  0  0  0  0
 17 18  1  0  0  0  0
 17 19  1  0  0  0  0
 18 39  1  0  0  0  0
 19 40  1  0  0  0  0
 19 41  1  0  0  0  0
 19 42  1  0  0  0  0
 20 24  1  0  0  0  0
 20 21  1  0  0  0  0
 21 22  1  0  0  0  0
 21 43  1  0  0  0  0
 21 44  1  0  0  0  0
 22 23  1  0  0  0  0
 22 45  1  0  0  0  0
 22 46  1  0  0  0  0
 23 24  1  0  0  0  0
 23 47  1  0  0  0  0
 23 48  1  0  0  0  0
 24 49  1  0  0  0  0
 24 50  1  0  0  0  0
 25 26  1  0  0  0  0
 26 27  1  0  0  0  0
 26 51  1  0  0  0  0
 26 52  1  0  0  0  0
 27 28  2  0  0  0  0
 27 53  1  0  0  0  0
M  CHG  1  53  -1
M  END
$$$$
ZINC04467563
  -OEChem-08230709463D

 52 54  0     1  0  0  0  0  0999 V2000
    2.8898    3.9428   -5.3188 C   0  0  0  0  0  0  0  0  0  0  0  0
    1.5824    4.5948   -4.8645 C   0  0  0  0  0  0  0  0  0  0  0  0
    1.8421    5.4474   -3.6493 C   0  0  0  0  0  0  0  0  0  0  0  0
    2.3185    6.7412   -3.7989 C   0  0  3  0  0  0  0  0  0  0  0  0
    2.4402    7.6515   -2.6523 C   0  0  0  0  0  0  0  0  0  0  0  0
    2.9061    8.8720   -2.8621 N   0  0  0  0  0  0  0  0  0  0  0  0
    3.2542    9.2958   -4.0738 C   0  0  0  0  0  0  0  0  0  0  0  0
    3.6696   10.4355   -4.1882 O   0  0  0  0  0  0  0  0  0  0  0  0
    3.1724    8.5371   -5.1765 N   0  0  0  0  0  0  0  0  0  0  0  0
    2.7194    7.2665   -5.1163 C   0  0  0  0  0  0  0  0  0  0  0  0
    2.6443    6.5778   -6.1170 O   0  0  0  0  0  0  0  0  0  0  0  0
    3.5629    9.0717   -6.4115 C   0  0  0  0  0  0  0  0  0  0  0  0
    4.7060    8.6004   -7.0433 C   0  0  0  0  0  0  0  0  0  0  0  0
    5.0847    9.1247   -8.2637 C   0  0  0  0  0  0  0  0  0  0  0  0
    4.3338   10.1269   -8.8502 C   0  0  0  0  0  0  0  0  0  0  0  0
    3.1983   10.6026   -8.2205 C   0  0  0  0  0  0  0  0  0  0  0  0
    2.8108   10.0776   -7.0031 C   0  0  0  0  0  0  0  0  0  0  0  0
    2.0895    7.2504   -1.4123 O   0  0  0  0  0  0  0  0  0  0  0  0
    1.6117    4.9532   -2.4186 N   0  0  0  0  0  0  0  0  0  0  0  0
    1.1084    3.5864   -2.2605 C   0  0  0  0  0  0  0  0  0  0  0  0
    0.9342    3.2760   -0.7725 C   0  0  0  0  0  0  0  0  0  0  0  0
    0.4164    1.8701   -0.6100 C   0  0  0  0  0  0  0  0  0  0  0  0
    1.2776    0.9264   -0.4018 C   0  0  0  0  0  0  0  0  0  0  0  0
    0.9154   -0.5199   -0.2313 C   0  0  0  0  0  0  0  0  0  0  0  0
   -0.5756   -0.6561    0.0849 C   0  0  0  0  0  0  0  0  0  0  0  0
   -1.3658    0.1697   -0.9380 C   0  0  0  0  0  0  0  0  0  0  0  0
   -1.0655    1.6512   -0.7000 C   0  0  0  0  0  0  0  0  0  0  0  0
    3.6152    4.7176   -5.5669 H   0  0  0  0  0  0  0  0  0  0  0  0
    3.2837    3.3201   -4.5156 H   0  0  0  0  0  0  0  0  0  0  0  0
    2.7019    3.3261   -6.1978 H   0  0  0  0  0  0  0  0  0  0  0  0
    0.9169    3.8840   -4.6370 H   0  0  0  0  0  0  0  0  0  0  0  0
    1.1886    5.2175   -5.6677 H   0  0  0  0  0  0  0  0  0  0  0  0
    5.2955    7.8211   -6.5834 H   0  0  0  0  0  0  0  0  0  0  0  0
    5.9706    8.7548   -8.7582 H   0  0  0  0  0  0  0  0  0  0  0  0
    4.6346   10.5387   -9.8022 H   0  0  0  0  0  0  0  0  0  0  0  0
    2.6137   11.3851   -8.6812 H   0  0  0  0  0  0  0  0  0  0  0  0
    1.9235   10.4491   -6.5121 H   0  0  0  0  0  0  0  0  0  0  0  0
    2.2091    7.9267   -0.7316 H   0  0  0  0  0  0  0  0  0  0  0  0
    3.1079    6.3173   -3.3548 H   0  0  0  0  0  0  0  0  0  0  0  0
    1.8190    2.8848   -2.6974 H   0  0  0  0  0  0  0  0  0  0  0  0
    0.1474    3.4924   -2.7663 H   0  0  0  0  0  0  0  0  0  0  0  0
    0.2236    3.9777   -0.3358 H   0  0  0  0  0  0  0  0  0  0  0  0
    1.8951    3.3701   -0.2668 H   0  0  0  0  0  0  0  0  0  0  0  0
    2.3219    1.1968   -0.3477 H   0  0  0  0  0  0  0  0  0  0  0  0
    1.4984   -0.9445    0.5860 H   0  0  0  0  0  0  0  0  0  0  0  0
    1.1405   -1.0595   -1.1513 H   0  0  0  0  0  0  0  0  0  0  0  0
   -0.7728   -0.2814    1.0892 H   0  0  0  0  0  0  0  0  0  0  0  0
   -0.8731   -1.7027    0.0193 H   0  0  0  0  0  0  0  0  0  0  0  0
   -2.4328   -0.0129   -0.8106 H   0  0  0  0  0  0  0  0  0  0  0  0
   -1.0649   -0.1074   -1.9484 H   0  0  0  0  0  0  0  0  0  0  0  0
   -1.4680    2.2386   -1.5252 H   0  0  0  0  0  0  0  0  0  0  0  0
   -1.5350    1.9699    0.2307 H   0  0  0  0  0  0  0  0  0  0  0  0
  1  2  1  0  0  0  0
  1 28  1  0  0  0  0
  1 29  1  0  0  0  0
  1 30  1  0  0  0  0
  2 32  1  0  0  0  0
  2  3  1  0  0  0  0
  2 31  1  0  0  0  0
  3  4  1  0  0  0  0
  3 19  2  0  0  0  0
  4 10  1  0  0  0  0
  4  5  1  0  0  0  0
  4 39  1  0  0  0  0
  5  6  2  0  0  0  0
  5 18  1  0  0  0  0
  6  7  1  0  0  0  0
  7  8  2  0  0  0  0
  7  9  1  0  0  0  0
  9 10  1  0  0  0  0
  9 12  1  0  0  0  0
 10 11  2  0  0  0  0
 12 17  2  0  0  0  0
 12 13  1  0  0  0  0
 13 14  2  0  0  0  0
 13 33  1  0  0  0  0
 14 15  1  0  0  0  0
 14 34  1  0  0  0  0
 15 16  2  0  0  0  0
 15 35  1  0  0  0  0
 16 17  1  0  0  0  0
 16 36  1  0  0  0  0
 17 37  1  0  0  0  0
 18 38  1  0  0  0  0
 19 20  1  0  0  0  0
 20 21  1  0  0  0  0
 20 40  1  0  0  0  0
 20 41  1  0  0  0  0
 21 22  1  0  0  0  0
 21 42  1  0  0  0  0
 21 43  1  0  0  0  0
 22 27  1  0  0  0  0
 22 23  2  0  0  0  0
 23 24  1  0  0  0  0
 23 44  1  0  0  0  0
 24 25  1  0  0  0  0
 24 45  1  0  0  0  0
 24 46  1  0  0  0  0
 25 26  1  0  0  0  0
 25 47  1  0  0  0  0
 25 48  1  0  0  0  0
 26 27  1  0  0  0  0
 26 49  1  0  0  0  0
 26 50  1  0  0  0  0
 27 51  1  0  0  0  0
 27 52  1  0  0  0  0
M  END
$$$$
ZINC04467563
  -OEChem-08230709463D

 53 55  0     1  0  0  0  0  0999 V2000
    3.1967    4.7836   -5.3511 C   0  0  0  0  0  0  0  0  0  0  0  0
    1.8356    5.2907   -4.8705 C   0  0  0  0  0  0  0  0  0  0  0  0
    1.9548    5.7801   -3.4502 C   0  0  0  0  0  0  0  0  0  0  0  0
    2.4112    7.0646   -3.1953 C   0  0  3  0  0  0  0  0  0  0  0  0
    2.3983    7.6285   -1.8388 C   0  0  0  0  0  0  0  0  0  0  0  0
    2.8518    8.8589   -1.6625 N   0  0  0  0  0  0  0  0  0  0  0  0
    3.3053    9.5954   -2.6729 C   0  0  0  0  0  0  0  0  0  0  0  0
    3.7014   10.7222   -2.4322 O   0  0  0  0  0  0  0  0  0  0  0  0
    3.3498    9.1654   -3.9423 N   0  0  0  0  0  0  0  0  0  0  0  0
    2.9249    7.9274   -4.2742 C   0  0  0  0  0  0  0  0  0  0  0  0
    2.9644    7.5370   -5.4263 O   0  0  0  0  0  0  0  0  0  0  0  0
    3.8450   10.0147   -4.9408 C   0  0  0  0  0  0  0  0  0  0  0  0
    5.0554    9.7301   -5.5588 C   0  0  0  0  0  0  0  0  0  0  0  0
    5.5376   10.5656   -6.5473 C   0  0  0  0  0  0  0  0  0  0  0  0
    4.8225   11.6914   -6.9126 C   0  0  0  0  0  0  0  0  0  0  0  0
    3.6197   11.9807   -6.2947 C   0  0  0  0  0  0  0  0  0  0  0  0
    3.1291   11.1454   -5.3102 C   0  0  0  0  0  0  0  0  0  0  0  0
    1.9389    6.9062   -0.7954 O   0  0  0  0  0  0  0  0  0  0  0  0
    1.1235    3.5928   -2.5696 C   0  0  0  0  0  0  0  0  0  0  0  0
    0.8514    3.0015   -1.1849 C   0  0  0  0  0  0  0  0  0  0  0  0
    0.3444    1.5900   -1.3323 C   0  0  0  0  0  0  0  0  0  0  0  0
    1.2030    0.6249   -1.2489 C   0  0  0  0  0  0  0  0  0  0  0  0
    0.8512   -0.8276   -1.3852 C   0  0  0  0  0  0  0  0  0  0  0  0
   -0.6560   -1.0238   -1.2072 C   0  0  0  0  0  0  0  0  0  0  0  0
   -1.3856   -0.0175   -2.1057 C   0  0  0  0  0  0  0  0  0  0  0  0
   -1.1243    1.3908   -1.5671 C   0  0  0  0  0  0  0  0  0  0  0  0
    3.9233    5.5949   -5.3061 H   0  0  0  0  0  0  0  0  0  0  0  0
    3.5262    3.9650   -4.7113 H   0  0  0  0  0  0  0  0  0  0  0  0
    3.1105    4.4297   -6.3785 H   0  0  0  0  0  0  0  0  0  0  0  0
    1.1690    4.5465   -4.9119 H   0  0  0  0  0  0  0  0  0  0  0  0
    1.5063    6.1094   -5.5103 H   0  0  0  0  0  0  0  0  0  0  0  0
    5.6166    8.8537   -5.2705 H   0  0  0  0  0  0  0  0  0  0  0  0
    6.4762   10.3419   -7.0321 H   0  0  0  0  0  0  0  0  0  0  0  0
    5.2040   12.3458   -7.6824 H   0  0  0  0  0  0  0  0  0  0  0  0
    3.0633   12.8605   -6.5824 H   0  0  0  0  0  0  0  0  0  0  0  0
    2.1893   11.3716   -4.8284 H   0  0  0  0  0  0  0  0  0  0  0  0
    1.9750    7.3716    0.0514 H   0  0  0  0  0  0  0  0  0  0  0  0
    3.1640    6.5340   -2.8058 H   0  0  0  0  0  0  0  0  0  0  0  0
    1.8728    2.9892   -3.0817 H   0  0  0  0  0  0  0  0  0  0  0  0
    0.2012    3.5968   -3.1506 H   0  0  0  0  0  0  0  0  0  0  0  0
    0.1021    3.6052   -0.6729 H   0  0  0  0  0  0  0  0  0  0  0  0
    1.7736    2.9976   -0.6040 H   0  0  0  0  0  0  0  0  0  0  0  0
    2.2369    0.8810   -1.0702 H   0  0  0  0  0  0  0  0  0  0  0  0
    1.3825   -1.4010   -0.6255 H   0  0  0  0  0  0  0  0  0  0  0  0
    1.1472   -1.1797   -2.3734 H   0  0  0  0  0  0  0  0  0  0  0  0
   -0.9276   -0.8497   -0.1661 H   0  0  0  0  0  0  0  0  0  0  0  0
   -0.9328   -2.0386   -1.4933 H   0  0  0  0  0  0  0  0  0  0  0  0
   -2.4561   -0.2224   -2.0915 H   0  0  0  0  0  0  0  0  0  0  0  0
   -1.0116   -0.0945   -3.1267 H   0  0  0  0  0  0  0  0  0  0  0  0
   -1.4775    2.1257   -2.2906 H   0  0  0  0  0  0  0  0  0  0  0  0
   -1.6617    1.5239   -0.6281 H   0  0  0  0  0  0  0  0  0  0  0  0
    1.6246    4.9952   -2.3612 N   0  3  0  0  0  0  0  0  0  0  0  0
    1.7215    5.3698   -1.4102 H   0  0  0  0  0  0  0  0  0  0  0  0
  1  2  1  0  0  0  0
  1 27  1  0  0  0  0
  1 28  1  0  0  0  0
  1 29  1  0  0  0  0
  2 31  1  0  0  0  0
  2  3  1  0  0  0  0
  2 30  1  0  0  0  0
  3  4  1  0  0  0  0
  3 52  2  0  0  0  0
  4 10  1  0  0  0  0
  4  5  1  0  0  0  0
  4 38  1  0  0  0  0
  5  6  2  0  0  0  0
  5 18  1  0  0  0  0
  6  7  1  0  0  0  0
  7  8  2  0  0  0  0
  7  9  1  0  0  0  0
  9 10  1  0  0  0  0
  9 12  1  0  0  0  0
 10 11  2  0  0  0  0
 12 17  2  0  0  0  0
 12 13  1  0  0  0  0
 13 14  2  0  0  0  0
 13 32  1  0  0  0  0
 14 15  1  0  0  0  0
 14 33  1  0  0  0  0
 15 16  2  0  0  0  0
 15 34  1  0  0  0  0
 16 17  1  0  0  0  0
 16 35  1  0  0  0  0
 17 36  1  0  0  0  0
 18 37  1  0  0  0  0
 19 20  1  0  0  0  0
 19 39  1  0  0  0  0
 19 40  1  0  0  0  0
 19 52  1  0  0  0  0
 20 21  1  0  0  0  0
 20 41  1  0  0  0  0
 20 42  1  0  0  0  0
 21 26  1  0  0  0  0
 21 22  2  0  0  0  0
 22 23  1  0  0  0  0
 22 43  1  0  0  0  0
 23 24  1  0  0  0  0
 23 44  1  0  0  0  0
 23 45  1  0  0  0  0
 24 25  1  0  0  0  0
 24 46  1  0  0  0  0
 24 47  1  0  0  0  0
 25 26  1  0  0  0  0
 25 48  1  0  0  0  0
 25 49  1  0  0  0  0
 26 50  1  0  0  0  0
 26 51  1  0  0  0  0
 52 53  1  0  0  0  0
M  CHG  1  52   1
M  END
$$$$
ZINC04468424
  -OEChem-08230709463D

 52 53  0     0  0  0  0  0  0999 V2000
    6.0760    6.1643   -3.7441 C   0  0  0  0  0  0  0  0  0  0  0  0
    5.0396    6.9483   -2.9364 C   0  0  0  0  0  0  0  0  0  0  0  0
    4.2059    7.8154   -3.8818 C   0  0  0  0  0  0  0  0  0  0  0  0
    5.7543    7.8425   -1.9212 C   0  0  0  0  0  0  0  0  0  0  0  0
    4.1362    5.9857   -2.2096 C   0  0  0  0  0  0  0  0  0  0  0  0
    4.3050    4.7878   -2.3264 O   0  0  0  0  0  0  0  0  0  0  0  0
    3.1009    6.4720   -1.3987 C   0  0  0  0  0  0  0  0  0  0  0  0
    2.2752    5.5922   -0.7344 C   0  0  0  0  0  0  0  0  0  0  0  0
    1.0823    6.0420    0.0423 C   0  0  0  0  0  0  0  0  0  0  0  0
    1.1151    7.1293    0.8880 C   0  0  0  0  0  0  0  0  0  0  0  0
    2.3407    7.7229    1.2191 C   0  0  0  0  0  0  0  0  0  0  0  0
    3.3816    7.2112    0.8558 O   0  0  0  0  0  0  0  0  0  0  0  0
    2.3681    8.9958    2.0254 C   0  0  0  0  0  0  0  0  0  0  0  0
    3.8189    9.4286    2.2461 C   0  0  0  0  0  0  0  0  0  0  0  0
    1.6175   10.0943    1.2700 C   0  0  0  0  0  0  0  0  0  0  0  0
    1.6957    8.7566    3.3788 C   0  0  0  0  0  0  0  0  0  0  0  0
   -0.0610    5.2826   -0.1524 N   0  0  0  0  0  0  0  0  0  0  0  0
    0.1068    3.9142   -0.3955 C   0  0  0  0  0  0  0  0  0  0  0  0
   -0.9921    3.0731   -0.3368 C   0  0  0  0  0  0  0  0  0  0  0  0
   -0.8389    1.7097   -0.5969 C   0  0  0  0  0  0  0  0  0  0  0  0
    0.4252    1.1960   -0.9056 C   0  0  0  0  0  0  0  0  0  0  0  0
    1.5158    2.0331   -0.9593 C   0  0  0  0  0  0  0  0  0  0  0  0
    1.3680    3.3935   -0.7017 C   0  0  0  0  0  0  0  0  0  0  0  0
    2.4893    4.2220   -0.7374 N   0  0  0  0  0  0  0  0  0  0  0  0
   -2.0073    0.8115   -0.5409 C   0  0  0  0  0  0  0  0  0  0  0  0
   -3.1049    1.2584   -0.2727 O   0  0  0  0  0  0  0  0  0  0  0  0
    5.5669    5.5273   -4.4673 H   0  0  0  0  0  0  0  0  0  0  0  0
    6.7294    6.8606   -4.2697 H   0  0  0  0  0  0  0  0  0  0  0  0
    6.6700    5.5466   -3.0705 H   0  0  0  0  0  0  0  0  0  0  0  0
    3.4675    8.3739   -3.3065 H   0  0  0  0  0  0  0  0  0  0  0  0
    4.8593    8.5117   -4.4075 H   0  0  0  0  0  0  0  0  0  0  0  0
    3.6967    7.1784   -4.6051 H   0  0  0  0  0  0  0  0  0  0  0  0
    6.3483    7.2247   -1.2477 H   0  0  0  0  0  0  0  0  0  0  0  0
    6.4077    8.5388   -2.4469 H   0  0  0  0  0  0  0  0  0  0  0  0
    5.0160    8.4010   -1.3458 H   0  0  0  0  0  0  0  0  0  0  0  0
    2.9509    7.5365   -1.2949 H   0  0  0  0  0  0  0  0  0  0  0  0
    0.1962    7.5242    1.2958 H   0  0  0  0  0  0  0  0  0  0  0  0
    4.2979    9.5989    1.2820 H   0  0  0  0  0  0  0  0  0  0  0  0
    3.8387   10.3492    2.8294 H   0  0  0  0  0  0  0  0  0  0  0  0
    4.3537    8.6460    2.7843 H   0  0  0  0  0  0  0  0  0  0  0  0
    0.5839    9.7860    1.1128 H   0  0  0  0  0  0  0  0  0  0  0  0
    1.6373   11.0149    1.8533 H   0  0  0  0  0  0  0  0  0  0  0  0
    2.0965   10.2646    0.3059 H   0  0  0  0  0  0  0  0  0  0  0  0
    2.2305    7.9740    3.9170 H   0  0  0  0  0  0  0  0  0  0  0  0
    1.7155    9.6773    3.9621 H   0  0  0  0  0  0  0  0  0  0  0  0
    0.6621    8.4483    3.2216 H   0  0  0  0  0  0  0  0  0  0  0  0
   -0.9435    5.6840   -0.1211 H   0  0  0  0  0  0  0  0  0  0  0  0
   -1.9662    3.4716   -0.0946 H   0  0  0  0  0  0  0  0  0  0  0  0
    0.5444    0.1416   -1.1064 H   0  0  0  0  0  0  0  0  0  0  0  0
    2.4894    1.6339   -1.2024 H   0  0  0  0  0  0  0  0  0  0  0  0
    3.3862    3.8534   -0.7630 H   0  0  0  0  0  0  0  0  0  0  0  0
   -1.8576   -0.5049   -0.7871 O   0  5  0  0  0  0  0  0  0  0  0  0
  1  2  1  0  0  0  0
  1 27  1  0  0  0  0
  1 28  1  0  0  0  0
  1 29  1  0  0  0  0
  2  3  1  0  0  0  0
  2  4  1  0  0  0  0
  2  5  1  0  0  0  0
  3 30  1  0  0  0  0
  3 31  1  0  0  0  0
  3 32  1  0  0  0  0
  4 33  1  0  0  0  0
  4 34  1  0  0  0  0
  4 35  1  0  0  0  0
  5  6  2  0  0  0  0
  5  7  1  0  0  0  0
  7  8  2  0  0  0  0
  7 36  1  0  0  0  0
  8 24  1  0  0  0  0
  8  9  1  0  0  0  0
  9 10  2  0  0  0  0
  9 17  1  0  0  0  0
 10 11  1  0  0  0  0
 10 37  1  0  0  0  0
 11 12  2  0  0  0  0
 11 13  1  0  0  0  0
 13 14  1  0  0  0  0
 13 15  1  0  0  0  0
 13 16  1  0  0  0  0
 14 38  1  0  0  0  0
 14 39  1  0  0  0  0
 14 40  1  0  0  0  0
 15 41  1  0  0  0  0
 15 42  1  0  0  0  0
 15 43  1  0  0  0  0
 16 44  1  0  0  0  0
 16 45  1  0  0  0  0
 16 46  1  0  0  0  0
 17 18  1  0  0  0  0
 17 47  1  0  0  0  0
 18 23  2  0  0  0  0
 18 19  1  0  0  0  0
 19 20  2  0  0  0  0
 19 48  1  0  0  0  0
 20 21  1  0  0  0  0
 20 25  1  0  0  0  0
 21 22  2  0  0  0  0
 21 49  1  0  0  0  0
 22 23  1  0  0  0  0
 22 50  1  0  0  0  0
 23 24  1  0  0  0  0
 24 51  1  0  0  0  0
 25 26  2  0  0  0  0
 25 52  1  0  0  0  0
M  CHG  1  52  -1
M  END
$$$$
ZINC04469950
  -OEChem-08230709463D

 55 57  0     1  0  0  0  0  0999 V2000
   -1.3079    4.0822   -1.5659 C   0  0  0  0  0  0  0  0  0  0  0  0
   -1.2405    3.6807   -0.0910 C   0  0  0  0  0  0  0  0  0  0  0  0
   -1.2101    2.1781    0.0197 C   0  0  0  0  0  0  0  0  0  0  0  0
    0.0024    1.5055   -0.0032 C   0  0  3  0  0  0  0  0  0  0  0  0
    1.2609    2.2023   -0.3004 C   0  0  0  0  0  0  0  0  0  0  0  0
    2.3829    1.5014   -0.3119 N   0  0  0  0  0  0  0  0  0  0  0  0
    2.4015    0.1947   -0.0637 C   0  0  0  0  0  0  0  0  0  0  0  0
    3.4743   -0.3821   -0.0930 O   0  0  0  0  0  0  0  0  0  0  0  0
    1.3034   -0.5224    0.2166 N   0  0  0  0  0  0  0  0  0  0  0  0
    0.0852    0.0581    0.2636 C   0  0  0  0  0  0  0  0  0  0  0  0
   -0.9116   -0.5922    0.5183 O   0  0  0  0  0  0  0  0  0  0  0  0
    1.4277   -1.9588    0.4764 C   0  0  0  0  0  0  0  0  0  0  0  0
    1.2901   -2.7172   -0.8185 C   0  0  0  0  0  0  0  0  0  0  0  0
    0.0446   -3.1420   -1.2418 C   0  0  0  0  0  0  0  0  0  0  0  0
   -0.0822   -3.8331   -2.4322 C   0  0  0  0  0  0  0  0  0  0  0  0
    1.0379   -4.1094   -3.1938 C   0  0  0  0  0  0  0  0  0  0  0  0
    2.2840   -3.6892   -2.7679 C   0  0  0  0  0  0  0  0  0  0  0  0
    2.4102   -2.9931   -1.5803 C   0  0  0  0  0  0  0  0  0  0  0  0
    1.2723    3.5273   -0.5565 O   0  0  0  0  0  0  0  0  0  0  0  0
   -2.3600    1.4888    0.1408 N   0  0  0  0  0  0  0  0  0  0  0  0
   -3.6408    2.1994    0.1650 C   0  0  0  0  0  0  0  0  0  0  0  0
   -4.7814    1.1898    0.3094 C   0  0  0  0  0  0  0  0  0  0  0  0
   -6.0990    1.9208    0.3343 C   0  0  0  0  0  0  0  0  0  0  0  0
   -6.7463    2.0434   -0.7800 C   0  0  0  0  0  0  0  0  0  0  0  0
   -8.0625    2.7515   -0.9142 C   0  0  0  0  0  0  0  0  0  0  0  0
   -8.7139    2.9183    0.4604 C   0  0  0  0  0  0  0  0  0  0  0  0
   -7.6735    3.5061    1.4221 C   0  0  0  0  0  0  0  0  0  0  0  0
   -6.5822    2.4558    1.6505 C   0  0  0  0  0  0  0  0  0  0  0  0
   -0.4318    3.6970   -2.0877 H   0  0  0  0  0  0  0  0  0  0  0  0
   -2.2100    3.6665   -2.0147 H   0  0  0  0  0  0  0  0  0  0  0  0
   -1.3298    5.1690   -1.6459 H   0  0  0  0  0  0  0  0  0  0  0  0
   -2.0442    4.0340    0.3877 H   0  0  0  0  0  0  0  0  0  0  0  0
   -0.3383    4.0964    0.3578 H   0  0  0  0  0  0  0  0  0  0  0  0
    2.4032   -2.1653    0.9166 H   0  0  0  0  0  0  0  0  0  0  0  0
    0.6441   -2.2723    1.1662 H   0  0  0  0  0  0  0  0  0  0  0  0
   -0.8299   -2.9303   -0.6444 H   0  0  0  0  0  0  0  0  0  0  0  0
   -1.0559   -4.1611   -2.7651 H   0  0  0  0  0  0  0  0  0  0  0  0
    0.9393   -4.6532   -4.1216 H   0  0  0  0  0  0  0  0  0  0  0  0
    3.1592   -3.9050   -3.3629 H   0  0  0  0  0  0  0  0  0  0  0  0
    3.3838   -2.6651   -1.2474 H   0  0  0  0  0  0  0  0  0  0  0  0
    2.1519    3.8850   -0.7394 H   0  0  0  0  0  0  0  0  0  0  0  0
    0.1009    2.0088    0.8553 H   0  0  0  0  0  0  0  0  0  0  0  0
   -3.6576    2.8896    1.0084 H   0  0  0  0  0  0  0  0  0  0  0  0
   -3.7646    2.7570   -0.7634 H   0  0  0  0  0  0  0  0  0  0  0  0
   -4.7647    0.4996   -0.5340 H   0  0  0  0  0  0  0  0  0  0  0  0
   -4.6577    0.6322    1.2378 H   0  0  0  0  0  0  0  0  0  0  0  0
   -6.3117    1.6095   -1.6684 H   0  0  0  0  0  0  0  0  0  0  0  0
   -7.9009    3.7333   -1.3591 H   0  0  0  0  0  0  0  0  0  0  0  0
   -8.7227    2.1682   -1.5562 H   0  0  0  0  0  0  0  0  0  0  0  0
   -9.5649    3.5950    0.3828 H   0  0  0  0  0  0  0  0  0  0  0  0
   -9.0495    1.9482    0.8270 H   0  0  0  0  0  0  0  0  0  0  0  0
   -7.2369    4.4042    0.9853 H   0  0  0  0  0  0  0  0  0  0  0  0
   -8.1502    3.7545    2.3704 H   0  0  0  0  0  0  0  0  0  0  0  0
   -6.9834    1.6371    2.2481 H   0  0  0  0  0  0  0  0  0  0  0  0
   -5.7482    2.9137    2.1825 H   0  0  0  0  0  0  0  0  0  0  0  0
  1  2  1  0  0  0  0
  1 29  1  0  0  0  0
  1 30  1  0  0  0  0
  1 31  1  0  0  0  0
  2 33  1  0  0  0  0
  2  3  1  0  0  0  0
  2 32  1  0  0  0  0
  3  4  1  0  0  0  0
  3 20  2  0  0  0  0
  4 10  1  0  0  0  0
  4  5  1  0  0  0  0
  4 42  1  0  0  0  0
  5  6  2  0  0  0  0
  5 19  1  0  0  0  0
  6  7  1  0  0  0  0
  7  8  2  0  0  0  0
  7  9  1  0  0  0  0
  9 10  1  0  0  0  0
  9 12  1  0  0  0  0
 10 11  2  0  0  0  0
 12 13  1  0  0  0  0
 12 34  1  0  0  0  0
 12 35  1  0  0  0  0
 13 18  2  0  0  0  0
 13 14  1  0  0  0  0
 14 15  2  0  0  0  0
 14 36  1  0  0  0  0
 15 16  1  0  0  0  0
 15 37  1  0  0  0  0
 16 17  2  0  0  0  0
 16 38  1  0  0  0  0
 17 18  1  0  0  0  0
 17 39  1  0  0  0  0
 18 40  1  0  0  0  0
 19 41  1  0  0  0  0
 20 21  1  0  0  0  0
 21 22  1  0  0  0  0
 21 43  1  0  0  0  0
 21 44  1  0  0  0  0
 22 23  1  0  0  0  0
 22 45  1  0  0  0  0
 22 46  1  0  0  0  0
 23 28  1  0  0  0  0
 23 24  2  0  0  0  0
 24 25  1  0  0  0  0
 24 47  1  0  0  0  0
 25 26  1  0  0  0  0
 25 48  1  0  0  0  0
 25 49  1  0  0  0  0
 26 27  1  0  0  0  0
 26 50  1  0  0  0  0
 26 51  1  0  0  0  0
 27 28  1  0  0  0  0
 27 52  1  0  0  0  0
 27 53  1  0  0  0  0
 28 54  1  0  0  0  0
 28 55  1  0  0  0  0
M  END
$$$$
ZINC04469950
  -OEChem-08230709463D

 56 58  0     1  0  0  0  0  0999 V2000
   -0.5528    3.6324   -1.5779 C   0  0  0  0  0  0  0  0  0  0  0  0
   -0.6318    3.2588   -0.0962 C   0  0  0  0  0  0  0  0  0  0  0  0
   -1.0373    1.8135    0.0366 C   0  0  0  0  0  0  0  0  0  0  0  0
   -0.0695    0.8204    0.0524 C   0  0  3  0  0  0  0  0  0  0  0  0
    1.3417    1.1198   -0.2242 C   0  0  0  0  0  0  0  0  0  0  0  0
    2.2145    0.1259   -0.1987 N   0  0  0  0  0  0  0  0  0  0  0  0
    1.8514   -1.1256    0.0684 C   0  0  0  0  0  0  0  0  0  0  0  0
    2.7132   -1.9869    0.0732 O   0  0  0  0  0  0  0  0  0  0  0  0
    0.5883   -1.4909    0.3323 N   0  0  0  0  0  0  0  0  0  0  0  0
   -0.4119   -0.5839    0.3417 C   0  0  0  0  0  0  0  0  0  0  0  0
   -1.5584   -0.9148    0.5815 O   0  0  0  0  0  0  0  0  0  0  0  0
    0.2889   -2.8967    0.6154 C   0  0  0  0  0  0  0  0  0  0  0  0
   -0.0365   -3.6100   -0.6715 C   0  0  0  0  0  0  0  0  0  0  0  0
   -1.3433   -3.6675   -1.1186 C   0  0  0  0  0  0  0  0  0  0  0  0
   -1.6411   -4.3173   -2.3017 C   0  0  0  0  0  0  0  0  0  0  0  0
   -0.6337   -4.9195   -3.0321 C   0  0  0  0  0  0  0  0  0  0  0  0
    0.6723   -4.8665   -2.5824 C   0  0  0  0  0  0  0  0  0  0  0  0
    0.9710   -4.2118   -1.4021 C   0  0  0  0  0  0  0  0  0  0  0  0
    1.7388    2.3801   -0.4988 O   0  0  0  0  0  0  0  0  0  0  0  0
   -3.4544    2.4447    0.1354 C   0  0  0  0  0  0  0  0  0  0  0  0
   -4.7788    1.6906    0.2717 C   0  0  0  0  0  0  0  0  0  0  0  0
   -5.9199    2.6750    0.2670 C   0  0  0  0  0  0  0  0  0  0  0  0
   -6.5130    2.9113   -0.8591 C   0  0  0  0  0  0  0  0  0  0  0  0
   -7.6552    3.8708   -1.0226 C   0  0  0  0  0  0  0  0  0  0  0  0
   -8.2780    4.1858    0.3392 C   0  0  0  0  0  0  0  0  0  0  0  0
   -7.1532    4.5627    1.3116 C   0  0  0  0  0  0  0  0  0  0  0  0
   -6.3023    3.3154    1.5692 C   0  0  0  0  0  0  0  0  0  0  0  0
    0.1851    3.0009   -2.0729 H   0  0  0  0  0  0  0  0  0  0  0  0
   -1.5277    3.4844   -2.0423 H   0  0  0  0  0  0  0  0  0  0  0  0
   -0.2594    4.6777   -1.6738 H   0  0  0  0  0  0  0  0  0  0  0  0
   -1.3088    3.8380    0.3579 H   0  0  0  0  0  0  0  0  0  0  0  0
    0.3432    3.4068    0.3683 H   0  0  0  0  0  0  0  0  0  0  0  0
    1.1552   -3.3658    1.0819 H   0  0  0  0  0  0  0  0  0  0  0  0
   -0.5647   -2.9575    1.2906 H   0  0  0  0  0  0  0  0  0  0  0  0
   -2.1311   -3.2011   -0.5455 H   0  0  0  0  0  0  0  0  0  0  0  0
   -2.6615   -4.3583   -2.6533 H   0  0  0  0  0  0  0  0  0  0  0  0
   -0.8670   -5.4309   -3.9542 H   0  0  0  0  0  0  0  0  0  0  0  0
    1.4595   -5.3370   -3.1530 H   0  0  0  0  0  0  0  0  0  0  0  0
    1.9913   -4.1708   -1.0505 H   0  0  0  0  0  0  0  0  0  0  0  0
    2.6875    2.4660   -0.6655 H   0  0  0  0  0  0  0  0  0  0  0  0
    0.1534    1.2917    0.9058 H   0  0  0  0  0  0  0  0  0  0  0  0
   -3.3420    3.1355    0.9709 H   0  0  0  0  0  0  0  0  0  0  0  0
   -3.4489    3.0028   -0.8009 H   0  0  0  0  0  0  0  0  0  0  0  0
   -4.8914    0.9999   -0.5638 H   0  0  0  0  0  0  0  0  0  0  0  0
   -4.7844    1.1325    1.2080 H   0  0  0  0  0  0  0  0  0  0  0  0
   -6.1636    2.3857   -1.7355 H   0  0  0  0  0  0  0  0  0  0  0  0
   -7.2906    4.7928   -1.4753 H   0  0  0  0  0  0  0  0  0  0  0  0
   -8.4114    3.4253   -1.6691 H   0  0  0  0  0  0  0  0  0  0  0  0
   -8.9720    5.0205    0.2402 H   0  0  0  0  0  0  0  0  0  0  0  0
   -8.8095    3.3096    0.7106 H   0  0  0  0  0  0  0  0  0  0  0  0
   -6.5366    5.3469    0.8724 H   0  0  0  0  0  0  0  0  0  0  0  0
   -7.5825    4.9161    2.2491 H   0  0  0  0  0  0  0  0  0  0  0  0
   -6.8703    2.6039    2.1689 H   0  0  0  0  0  0  0  0  0  0  0  0
   -5.4000    3.6012    2.1100 H   0  0  0  0  0  0  0  0  0  0  0  0
   -2.3570    1.4168    0.1460 N   0  3  0  0  0  0  0  0  0  0  0  0
   -2.5879    0.4202    0.2346 H   0  0  0  0  0  0  0  0  0  0  0  0
  1  2  1  0  0  0  0
  1 28  1  0  0  0  0
  1 29  1  0  0  0  0
  1 30  1  0  0  0  0
  2 32  1  0  0  0  0
  2  3  1  0  0  0  0
  2 31  1  0  0  0  0
  3  4  1  0  0  0  0
  3 55  2  0  0  0  0
  4 10  1  0  0  0  0
  4  5  1  0  0  0  0
  4 41  1  0  0  0  0
  5  6  2  0  0  0  0
  5 19  1  0  0  0  0
  6  7  1  0  0  0  0
  7  8  2  0  0  0  0
  7  9  1  0  0  0  0
  9 10  1  0  0  0  0
  9 12  1  0  0  0  0
 10 11  2  0  0  0  0
 12 13  1  0  0  0  0
 12 33  1  0  0  0  0
 12 34  1  0  0  0  0
 13 18  2  0  0  0  0
 13 14  1  0  0  0  0
 14 15  2  0  0  0  0
 14 35  1  0  0  0  0
 15 16  1  0  0  0  0
 15 36  1  0  0  0  0
 16 17  2  0  0  0  0
 16 37  1  0  0  0  0
 17 18  1  0  0  0  0
 17 38  1  0  0  0  0
 18 39  1  0  0  0  0
 19 40  1  0  0  0  0
 20 21  1  0  0  0  0
 20 42  1  0  0  0  0
 20 43  1  0  0  0  0
 20 55  1  0  0  0  0
 21 22  1  0  0  0  0
 21 44  1  0  0  0  0
 21 45  1  0  0  0  0
 22 27  1  0  0  0  0
 22 23  2  0  0  0  0
 23 24  1  0  0  0  0
 23 46  1  0  0  0  0
 24 25  1  0  0  0  0
 24 47  1  0  0  0  0
 24 48  1  0  0  0  0
 25 26  1  0  0  0  0
 25 49  1  0  0  0  0
 25 50  1  0  0  0  0
 26 27  1  0  0  0  0
 26 51  1  0  0  0  0
 26 52  1  0  0  0  0
 27 53  1  0  0  0  0
 27 54  1  0  0  0  0
 55 56  1  0  0  0  0
M  CHG  1  55   1
M  END
$$$$
ZINC04505290
  -OEChem-08230709463D

 54 56  0     1  0  0  0  0  0999 V2000
    8.4805   -0.9126   -1.4518 C   0  0  0  0  0  0  0  0  0  0  0  0
    7.3932   -1.9876   -1.3977 C   0  0  0  0  0  0  0  0  0  0  0  0
    7.8097   -3.0854   -0.4168 C   0  0  0  0  0  0  0  0  0  0  0  0
    7.2045   -2.5927   -2.7903 C   0  0  0  0  0  0  0  0  0  0  0  0
    6.0977   -1.3691   -0.9390 C   0  0  0  0  0  0  0  0  0  0  0  0
    5.5218   -0.3481   -1.6715 C   0  0  0  0  0  0  0  0  0  0  0  0
    4.3330    0.2186   -1.2513 C   0  0  0  0  0  0  0  0  0  0  0  0
    3.7205   -0.2354   -0.0982 C   0  0  0  0  0  0  0  0  0  0  0  0
    4.2994   -1.2526    0.6374 C   0  0  0  0  0  0  0  0  0  0  0  0
    5.4852   -1.8232    0.2140 C   0  0  0  0  0  0  0  0  0  0  0  0
    2.4248    0.3827    0.3602 C   0  0  2  0  0  0  0  0  0  0  0  0
    2.2516    1.4080    0.0335 H   0  0  0  0  0  0  0  0  0  0  0  0
    1.9005   -0.0170    1.7409 C   0  0  0  0  0  0  0  0  0  0  0  0
    1.2071   -0.5360    0.4796 C   0  0  2  0  0  0  0  0  0  0  0  0
    0.2329   -0.1151    0.2311 H   0  0  0  0  0  0  0  0  0  0  0  0
    1.3954   -1.9898    0.1303 C   0  0  0  0  0  0  0  0  0  0  0  0
    2.2485   -2.3163   -0.6680 O   0  0  0  0  0  0  0  0  0  0  0  0
    0.6160   -2.9273    0.7049 N   0  0  0  0  0  0  0  0  0  0  0  0
    0.8599   -4.2855    0.4627 N   0  0  0  0  0  0  0  0  0  0  0  0
    0.0445   -5.1837    0.9243 C   0  0  0  0  0  0  0  0  0  0  0  0
   -1.2219   -4.7737    1.5568 C   0  0  0  0  0  0  0  0  0  0  0  0
   -1.8355   -3.5745    1.1875 C   0  0  0  0  0  0  0  0  0  0  0  0
   -3.0170   -3.1936    1.7880 C   0  0  0  0  0  0  0  0  0  0  0  0
   -3.6017   -3.9982    2.7511 C   0  0  0  0  0  0  0  0  0  0  0  0
   -3.0075   -5.1898    3.1211 C   0  0  0  0  0  0  0  0  0  0  0  0
   -1.8200   -5.5873    2.5287 C   0  0  0  0  0  0  0  0  0  0  0  0
   -1.2349   -6.7577    2.8923 O   0  0  0  0  0  0  0  0  0  0  0  0
   -1.8777   -7.5120    3.9218 C   0  0  0  0  0  0  0  0  0  0  0  0
   -1.0341   -8.7123    4.2664 C   0  0  0  0  0  0  0  0  0  0  0  0
    0.0534   -8.8522    3.7587 O   0  0  0  0  0  0  0  0  0  0  0  0
    8.6150   -0.4815   -0.4598 H   0  0  0  0  0  0  0  0  0  0  0  0
    9.4175   -1.3599   -1.7836 H   0  0  0  0  0  0  0  0  0  0  0  0
    8.1838   -0.1305   -2.1507 H   0  0  0  0  0  0  0  0  0  0  0  0
    7.0350   -3.8513   -0.3783 H   0  0  0  0  0  0  0  0  0  0  0  0
    8.7466   -3.5327   -0.7486 H   0  0  0  0  0  0  0  0  0  0  0  0
    7.9441   -2.6543    0.5752 H   0  0  0  0  0  0  0  0  0  0  0  0
    6.9077   -1.8106   -3.4891 H   0  0  0  0  0  0  0  0  0  0  0  0
    8.1414   -3.0400   -3.1221 H   0  0  0  0  0  0  0  0  0  0  0  0
    6.4298   -3.3585   -2.7517 H   0  0  0  0  0  0  0  0  0  0  0  0
    6.0003    0.0067   -2.5724 H   0  0  0  0  0  0  0  0  0  0  0  0
    3.8830    1.0164   -1.8236 H   0  0  0  0  0  0  0  0  0  0  0  0
    3.8231   -1.6043    1.5406 H   0  0  0  0  0  0  0  0  0  0  0  0
    5.9350   -2.6211    0.7862 H   0  0  0  0  0  0  0  0  0  0  0  0
    1.3823    0.7455    2.3225 H   0  0  0  0  0  0  0  0  0  0  0  0
    2.4928   -0.7270    2.3180 H   0  0  0  0  0  0  0  0  0  0  0  0
   -0.1138   -2.6617    1.2860 H   0  0  0  0  0  0  0  0  0  0  0  0
    0.2941   -6.2314    0.8450 H   0  0  0  0  0  0  0  0  0  0  0  0
   -1.3827   -2.9442    0.4364 H   0  0  0  0  0  0  0  0  0  0  0  0
   -3.4884   -2.2639    1.5055 H   0  0  0  0  0  0  0  0  0  0  0  0
   -4.5273   -3.6926    3.2162 H   0  0  0  0  0  0  0  0  0  0  0  0
   -3.4695   -5.8119    3.8734 H   0  0  0  0  0  0  0  0  0  0  0  0
   -2.8556   -7.8435    3.5727 H   0  0  0  0  0  0  0  0  0  0  0  0
   -2.0003   -6.8879    4.8070 H   0  0  0  0  0  0  0  0  0  0  0  0
   -1.4908   -9.6259    5.1373 O   0  5  0  0  0  0  0  0  0  0  0  0
  1  2  1  0  0  0  0
  1 31  1  0  0  0  0
  1 32  1  0  0  0  0
  1 33  1  0  0  0  0
  2  3  1  0  0  0  0
  2  4  1  0  0  0  0
  2  5  1  0  0  0  0
  3 34  1  0  0  0  0
  3 35  1  0  0  0  0
  3 36  1  0  0  0  0
  4 37  1  0  0  0  0
  4 38  1  0  0  0  0
  4 39  1  0  0  0  0
  5 10  2  0  0  0  0
  5  6  1  0  0  0  0
  6  7  2  0  0  0  0
  6 40  1  0  0  0  0
  7  8  1  0  0  0  0
  7 41  1  0  0  0  0
  8  9  2  0  0  0  0
  8 11  1  0  0  0  0
  9 10  1  0  0  0  0
  9 42  1  0  0  0  0
 10 43  1  0  0  0  0
 11 12  1  0  0  0  0
 11 14  1  0  0  0  0
 11 13  1  0  0  0  0
 13 14  1  0  0  0  0
 13 44  1  0  0  0  0
 13 45  1  0  0  0  0
 14 15  1  0  0  0  0
 14 16  1  0  0  0  0
 16 17  2  0  0  0  0
 16 18  1  0  0  0  0
 18 19  1  0  0  0  0
 18 46  1  0  0  0  0
 19 20  2  0  0  0  0
 20 21  1  0  0  0  0
 20 47  1  0  0  0  0
 21 26  2  0  0  0  0
 21 22  1  0  0  0  0
 22 23  2  0  0  0  0
 22 48  1  0  0  0  0
 23 24  1  0  0  0  0
 23 49  1  0  0  0  0
 24 25  2  0  0  0  0
 24 50  1  0  0  0  0
 25 26  1  0  0  0  0
 25 51  1  0  0  0  0
 26 27  1  0  0  0  0
 27 28  1  0  0  0  0
 28 29  1  0  0  0  0
 28 52  1  0  0  0  0
 28 53  1  0  0  0  0
 29 30  2  0  0  0  0
 29 54  1  0  0  0  0
M  CHG  1  54  -1
M  END
$$$$
ZINC04568503
  -OEChem-08230709463D

 51 53  0     0  0  0  0  0  0999 V2000
    3.1084   -1.8742    6.7733 C   0  0  0  0  0  0  0  0  0  0  0  0
    2.0346   -2.8350    6.3320 C   0  0  0  0  0  0  0  0  0  0  0  0
    1.3875   -3.6238    7.2632 C   0  0  0  0  0  0  0  0  0  0  0  0
    0.4018   -4.5053    6.8592 C   0  0  0  0  0  0  0  0  0  0  0  0
    0.0606   -4.6004    5.5223 C   0  0  0  0  0  0  0  0  0  0  0  0
    0.7000   -3.8109    4.5871 C   0  0  0  0  0  0  0  0  0  0  0  0
    1.6943   -2.9281    4.9889 C   0  0  0  0  0  0  0  0  0  0  0  0
    2.3473   -2.1306    4.0436 N   0  0  0  0  0  0  0  0  0  0  0  0
    2.4093   -2.5252    2.7564 C   0  0  0  0  0  0  0  0  0  0  0  0
    1.9864   -3.6202    2.4346 O   0  0  0  0  0  0  0  0  0  0  0  0
    2.9860   -1.6356    1.7439 C   0  0  0  0  0  0  0  0  0  0  0  0
    2.1568   -0.6833    1.0177 C   0  0  0  0  0  0  0  0  0  0  0  0
    2.8151    0.0679    0.1093 C   0  0  0  0  0  0  0  0  0  0  0  0
    4.5030   -0.4615    0.2172 S   0  0  0  0  0  0  0  0  0  0  0  0
    4.3390   -1.6716    1.4453 C   0  0  0  0  0  0  0  0  0  0  0  0
    5.3220   -2.4801    1.9955 N   0  0  0  0  0  0  0  0  0  0  0  0
    6.5977   -2.3716    1.5742 C   0  0  0  0  0  0  0  0  0  0  0  0
    6.8858   -1.5668    0.7138 O   0  0  0  0  0  0  0  0  0  0  0  0
    7.6660   -3.2502    2.1722 C   0  0  0  0  0  0  0  0  0  0  0  0
    9.0137   -2.9279    1.5234 C   0  0  0  0  0  0  0  0  0  0  0  0
   10.0820   -3.8065    2.1214 C   0  0  0  0  0  0  0  0  0  0  0  0
    9.7950   -4.6083    2.9786 O   0  0  0  0  0  0  0  0  0  0  0  0
    2.2455    1.1079   -0.8041 C   0  0  0  0  0  0  0  0  0  0  0  0
    1.3606    2.0640    0.0069 C   0  0  0  0  0  0  0  0  0  0  0  0
   -0.0605    1.5097    0.0231 C   0  0  0  0  0  0  0  0  0  0  0  0
   -0.0293   -0.0173    0.0134 C   0  0  0  0  0  0  0  0  0  0  0  0
    0.6601   -0.5441    1.2672 C   0  0  0  0  0  0  0  0  0  0  0  0
    2.6586   -0.9096    7.0084 H   0  0  0  0  0  0  0  0  0  0  0  0
    3.6069   -2.2682    7.6589 H   0  0  0  0  0  0  0  0  0  0  0  0
    3.8365   -1.7498    5.9717 H   0  0  0  0  0  0  0  0  0  0  0  0
    1.6514   -3.5516    8.3079 H   0  0  0  0  0  0  0  0  0  0  0  0
   -0.1029   -5.1206    7.5893 H   0  0  0  0  0  0  0  0  0  0  0  0
   -0.7100   -5.2897    5.2100 H   0  0  0  0  0  0  0  0  0  0  0  0
    0.4302   -3.8828    3.5438 H   0  0  0  0  0  0  0  0  0  0  0  0
    2.7557   -1.2934    4.3144 H   0  0  0  0  0  0  0  0  0  0  0  0
    5.0916   -3.1237    2.6836 H   0  0  0  0  0  0  0  0  0  0  0  0
    7.7268   -3.0691    3.2453 H   0  0  0  0  0  0  0  0  0  0  0  0
    7.4179   -4.2965    1.9938 H   0  0  0  0  0  0  0  0  0  0  0  0
    8.9529   -3.1090    0.4503 H   0  0  0  0  0  0  0  0  0  0  0  0
    9.2618   -1.8816    1.7019 H   0  0  0  0  0  0  0  0  0  0  0  0
    3.0570    1.6685   -1.2683 H   0  0  0  0  0  0  0  0  0  0  0  0
    1.6471    0.6253   -1.5769 H   0  0  0  0  0  0  0  0  0  0  0  0
    1.3641    3.0498   -0.4581 H   0  0  0  0  0  0  0  0  0  0  0  0
    1.7376    2.1355    1.0272 H   0  0  0  0  0  0  0  0  0  0  0  0
   -0.5973    1.8657   -0.8563 H   0  0  0  0  0  0  0  0  0  0  0  0
   -0.5729    1.8549    0.9210 H   0  0  0  0  0  0  0  0  0  0  0  0
   -1.0498   -0.3985   -0.0239 H   0  0  0  0  0  0  0  0  0  0  0  0
    0.5130   -0.3611   -0.8675 H   0  0  0  0  0  0  0  0  0  0  0  0
    0.4935    0.1503    2.0907 H   0  0  0  0  0  0  0  0  0  0  0  0
    0.2456   -1.5184    1.5259 H   0  0  0  0  0  0  0  0  0  0  0  0
   11.3525   -3.6985    1.7019 O   0  5  0  0  0  0  0  0  0  0  0  0
  1  2  1  0  0  0  0
  1 28  1  0  0  0  0
  1 29  1  0  0  0  0
  1 30  1  0  0  0  0
  2  7  2  0  0  0  0
  2  3  1  0  0  0  0
  3  4  2  0  0  0  0
  3 31  1  0  0  0  0
  4  5  1  0  0  0  0
  4 32  1  0  0  0  0
  5  6  2  0  0  0  0
  5 33  1  0  0  0  0
  6  7  1  0  0  0  0
  6 34  1  0  0  0  0
  7  8  1  0  0  0  0
  8  9  1  0  0  0  0
  8 35  1  0  0  0  0
  9 10  2  0  0  0  0
  9 11  1  0  0  0  0
 11 15  2  0  0  0  0
 11 12  1  0  0  0  0
 12 27  1  0  0  0  0
 12 13  2  0  0  0  0
 13 14  1  0  0  0  0
 13 23  1  0  0  0  0
 14 15  1  0  0  0  0
 15 16  1  0  0  0  0
 16 17  1  0  0  0  0
 16 36  1  0  0  0  0
 17 18  2  0  0  0  0
 17 19  1  0  0  0  0
 19 20  1  0  0  0  0
 19 37  1  0  0  0  0
 19 38  1  0  0  0  0
 20 21  1  0  0  0  0
 20 39  1  0  0  0  0
 20 40  1  0  0  0  0
 21 22  2  0  0  0  0
 21 51  1  0  0  0  0
 23 24  1  0  0  0  0
 23 41  1  0  0  0  0
 23 42  1  0  0  0  0
 24 25  1  0  0  0  0
 24 43  1  0  0  0  0
 24 44  1  0  0  0  0
 25 26  1  0  0  0  0
 25 45  1  0  0  0  0
 25 46  1  0  0  0  0
 26 27  1  0  0  0  0
 26 47  1  0  0  0  0
 26 48  1  0  0  0  0
 27 49  1  0  0  0  0
 27 50  1  0  0  0  0
M  CHG  1  51  -1
M  END
$$$$
ZINC04637404
  -OEChem-08230709463D

 59 61  0     1  0  0  0  0  0999 V2000
    0.2627    6.1057   -6.8266 C   0  0  0  0  0  0  0  0  0  0  0  0
   -0.4761    5.3378   -5.7287 C   0  0  0  0  0  0  0  0  0  0  0  0
   -0.9597    6.2571   -4.7474 O   0  0  0  0  0  0  0  0  0  0  0  0
   -1.6442    5.7336   -3.6953 C   0  0  0  0  0  0  0  0  0  0  0  0
   -1.8416    4.3649   -3.6072 C   0  0  0  0  0  0  0  0  0  0  0  0
   -2.5422    3.8349   -2.5398 C   0  0  0  0  0  0  0  0  0  0  0  0
   -3.0382    4.6667   -1.5531 C   0  0  0  0  0  0  0  0  0  0  0  0
   -2.8406    6.0326   -1.6325 C   0  0  0  0  0  0  0  0  0  0  0  0
   -2.1438    6.5709   -2.7024 C   0  0  0  0  0  0  0  0  0  0  0  0
   -1.9482    7.9143   -2.7818 O   0  0  0  0  0  0  0  0  0  0  0  0
   -2.7605    2.3466   -2.4483 C   0  0  2  0  0  0  0  0  0  0  0  0
   -2.2905    1.8626   -3.3044 H   0  0  0  0  0  0  0  0  0  0  0  0
   -4.2619    2.0792   -2.4628 C   0  0  2  0  0  0  0  0  0  0  0  0
   -4.7410    2.6803   -3.2355 H   0  0  0  0  0  0  0  0  0  0  0  0
   -4.8098    2.4592   -1.0995 C   0  0  0  0  0  0  0  0  0  0  0  0
   -5.8008    3.3192   -0.9557 C   0  0  0  0  0  0  0  0  0  0  0  0
   -4.1977    1.8402   -0.0058 N   0  0  0  0  0  0  0  0  0  0  0  0
   -2.8474    1.6097   -0.0548 C   0  0  0  0  0  0  0  0  0  0  0  0
   -2.1307    1.8292   -1.1772 C   0  0  0  0  0  0  0  0  0  0  0  0
   -0.7460    1.5805   -1.2075 C   0  0  0  0  0  0  0  0  0  0  0  0
   -0.1281    1.7802   -2.2348 O   0  0  0  0  0  0  0  0  0  0  0  0
   -0.0149    1.0734    0.0042 C   0  0  0  0  0  0  0  0  0  0  0  0
   -0.7345    1.5701    1.2630 C   0  0  0  0  0  0  0  0  0  0  0  0
   -2.1876    1.0972    1.2039 C   0  0  0  0  0  0  0  0  0  0  0  0
   -0.0506    0.9993    2.5070 C   0  0  0  0  0  0  0  0  0  0  0  0
   -0.6975    3.0989    1.3089 C   0  0  0  0  0  0  0  0  0  0  0  0
   -4.5085    0.6155   -2.7242 C   0  0  0  0  0  0  0  0  0  0  0  0
   -3.5753   -0.1356   -2.8815 O   0  0  0  0  0  0  0  0  0  0  0  0
   -5.7648    0.1466   -2.7824 O   0  0  0  0  0  0  0  0  0  0  0  0
   -5.9271   -1.2736   -3.0377 C   0  0  0  0  0  0  0  0  0  0  0  0
   -7.3949   -1.6140   -3.0678 C   0  0  0  0  0  0  0  0  0  0  0  0
   -7.8688   -2.3863   -4.0139 C   0  0  0  0  0  0  0  0  0  0  0  0
   -0.4198    6.8136   -7.2970 H   0  0  0  0  0  0  0  0  0  0  0  0
    1.1025    6.6461   -6.3899 H   0  0  0  0  0  0  0  0  0  0  0  0
    0.6316    5.4045   -7.5752 H   0  0  0  0  0  0  0  0  0  0  0  0
    0.2064    4.6299   -5.2583 H   0  0  0  0  0  0  0  0  0  0  0  0
   -1.3159    4.7974   -6.1655 H   0  0  0  0  0  0  0  0  0  0  0  0
   -1.4517    3.7126   -4.3746 H   0  0  0  0  0  0  0  0  0  0  0  0
   -3.5815    4.2484   -0.7187 H   0  0  0  0  0  0  0  0  0  0  0  0
   -3.2297    6.6803   -0.8607 H   0  0  0  0  0  0  0  0  0  0  0  0
   -1.1361    8.2194   -2.3546 H   0  0  0  0  0  0  0  0  0  0  0  0
   -6.2485    3.7776   -1.8251 H   0  0  0  0  0  0  0  0  0  0  0  0
   -6.1639    3.5645    0.0314 H   0  0  0  0  0  0  0  0  0  0  0  0
   -6.6724    2.8292   -0.9722 H   0  0  0  0  0  0  0  0  0  0  0  0
   -0.0039    0.0735   -0.0074 H   0  0  0  0  0  0  0  0  0  0  0  0
    1.0086    1.4482   -0.0034 H   0  0  0  0  0  0  0  0  0  0  0  0
   -2.7297    1.4680    2.0739 H   0  0  0  0  0  0  0  0  0  0  0  0
   -2.2044    0.0074    1.2039 H   0  0  0  0  0  0  0  0  0  0  0  0
    0.9889    1.3261    2.5323 H   0  0  0  0  0  0  0  0  0  0  0  0
   -0.5651    1.3547    3.3998 H   0  0  0  0  0  0  0  0  0  0  0  0
   -0.0884   -0.0896    2.4750 H   0  0  0  0  0  0  0  0  0  0  0  0
   -1.1947    3.5011    0.4262 H   0  0  0  0  0  0  0  0  0  0  0  0
   -1.2100    3.4479    2.2053 H   0  0  0  0  0  0  0  0  0  0  0  0
    0.3386    3.4369    1.3280 H   0  0  0  0  0  0  0  0  0  0  0  0
   -5.4764   -1.5239   -3.9980 H   0  0  0  0  0  0  0  0  0  0  0  0
   -5.4381   -1.8431   -2.2473 H   0  0  0  0  0  0  0  0  0  0  0  0
   -8.0559   -1.2213   -2.3094 H   0  0  0  0  0  0  0  0  0  0  0  0
   -7.2077   -2.7790   -4.7723 H   0  0  0  0  0  0  0  0  0  0  0  0
   -8.9207   -2.6303   -4.0354 H   0  0  0  0  0  0  0  0  0  0  0  0
  1  2  1  0  0  0  0
  1 33  1  0  0  0  0
  1 34  1  0  0  0  0
  1 35  1  0  0  0  0
  2  3  1  0  0  0  0
  2 36  1  0  0  0  0
  2 37  1  0  0  0  0
  3  4  1  0  0  0  0
  4  9  2  0  0  0  0
  4  5  1  0  0  0  0
  5  6  2  0  0  0  0
  5 38  1  0  0  0  0
  6  7  1  0  0  0  0
  6 11  1  0  0  0  0
  7  8  2  0  0  0  0
  7 39  1  0  0  0  0
  8  9  1  0  0  0  0
  8 40  1  0  0  0  0
  9 10  1  0  0  0  0
 10 41  1  0  0  0  0
 11 12  1  0  0  0  0
 11 19  1  0  0  0  0
 11 13  1  0  0  0  0
 13 14  1  0  0  0  0
 13 15  1  0  0  0  0
 13 27  1  0  0  0  0
 15 17  2  0  0  0  0
 15 16  1  0  0  0  0
 16 42  1  0  0  0  0
 16 43  1  0  0  0  0
 16 44  1  0  0  0  0
 17 18  1  0  0  0  0
 18 24  1  0  0  0  0
 18 19  2  0  0  0  0
 19 20  1  0  0  0  0
 20 21  2  0  0  0  0
 20 22  1  0  0  0  0
 22 23  1  0  0  0  0
 22 45  1  0  0  0  0
 22 46  1  0  0  0  0
 23 24  1  0  0  0  0
 23 25  1  0  0  0  0
 23 26  1  0  0  0  0
 24 47  1  0  0  0  0
 24 48  1  0  0  0  0
 25 49  1  0  0  0  0
 25 50  1  0  0  0  0
 25 51  1  0  0  0  0
 26 52  1  0  0  0  0
 26 53  1  0  0  0  0
 26 54  1  0  0  0  0
 27 28  2  0  0  0  0
 27 29  1  0  0  0  0
 29 30  1  0  0  0  0
 30 31  1  0  0  0  0
 30 55  1  0  0  0  0
 30 56  1  0  0  0  0
 31 32  2  0  0  0  0
 31 57  1  0  0  0  0
 32 58  1  0  0  0  0
 32 59  1  0  0  0  0
M  END
$$$$
ZINC04637404
  -OEChem-08230709463D

 59 61  0     1  0  0  0  0  0999 V2000
    0.2627    6.1055   -6.8267 C   0  0  0  0  0  0  0  0  0  0  0  0
   -0.4761    5.3376   -5.7288 C   0  0  0  0  0  0  0  0  0  0  0  0
   -0.9597    6.2570   -4.7475 O   0  0  0  0  0  0  0  0  0  0  0  0
   -1.6442    5.7335   -3.6954 C   0  0  0  0  0  0  0  0  0  0  0  0
   -1.8416    4.3648   -3.6073 C   0  0  0  0  0  0  0  0  0  0  0  0
   -2.5422    3.8348   -2.5399 C   0  0  0  0  0  0  0  0  0  0  0  0
   -3.0382    4.6667   -1.5532 C   0  0  0  0  0  0  0  0  0  0  0  0
   -2.8406    6.0326   -1.6326 C   0  0  0  0  0  0  0  0  0  0  0  0
   -2.1438    6.5708   -2.7026 C   0  0  0  0  0  0  0  0  0  0  0  0
   -1.9482    7.9142   -2.7820 O   0  0  0  0  0  0  0  0  0  0  0  0
   -2.7605    2.3465   -2.4483 C   0  0  2  0  0  0  0  0  0  0  0  0
   -2.2905    1.8625   -3.3044 H   0  0  0  0  0  0  0  0  0  0  0  0
   -4.2619    2.0791   -2.4628 C   0  0  0  0  0  0  0  0  0  0  0  0
   -2.1569    0.8293   -1.1752 H   0  0  0  0  0  0  0  0  0  0  0  0
   -4.8098    2.4592   -1.0995 C   0  0  0  0  0  0  0  0  0  0  0  0
   -5.8008    3.3192   -0.9557 C   0  0  0  0  0  0  0  0  0  0  0  0
   -4.1978    1.8401   -0.0058 N   0  0  0  0  0  0  0  0  0  0  0  0
   -2.8475    1.6095   -0.0548 C   0  0  0  0  0  0  0  0  0  0  0  0
   -2.1307    1.8290   -1.1772 C   0  0  2  0  0  0  0  0  0  0  0  0
   -0.7461    1.5802   -1.2075 C   0  0  0  0  0  0  0  0  0  0  0  0
   -0.1281    1.7798   -2.2347 O   0  0  0  0  0  0  0  0  0  0  0  0
   -0.0150    1.0730    0.0043 C   0  0  0  0  0  0  0  0  0  0  0  0
   -0.7346    1.5698    1.2630 C   0  0  0  0  0  0  0  0  0  0  0  0
   -2.1877    1.0970    1.2039 C   0  0  0  0  0  0  0  0  0  0  0  0
   -0.0508    0.9990    2.5071 C   0  0  0  0  0  0  0  0  0  0  0  0
   -0.6975    3.0986    1.3089 C   0  0  0  0  0  0  0  0  0  0  0  0
   -5.3785    1.5772   -3.3419 C   0  0  0  0  0  0  0  0  0  0  0  0
   -5.3561    0.4433   -3.7585 O   0  0  0  0  0  0  0  0  0  0  0  0
   -6.3976    2.3900   -3.6620 O   0  0  0  0  0  0  0  0  0  0  0  0
   -7.4377    1.8393   -4.5125 C   0  0  0  0  0  0  0  0  0  0  0  0
   -8.4898    2.8890   -4.7630 C   0  0  0  0  0  0  0  0  0  0  0  0
   -8.9578    3.0715   -5.9729 C   0  0  0  0  0  0  0  0  0  0  0  0
   -0.4198    6.8134   -7.2972 H   0  0  0  0  0  0  0  0  0  0  0  0
    1.1025    6.6459   -6.3901 H   0  0  0  0  0  0  0  0  0  0  0  0
    0.6316    5.4043   -7.5753 H   0  0  0  0  0  0  0  0  0  0  0  0
    0.2064    4.6297   -5.2584 H   0  0  0  0  0  0  0  0  0  0  0  0
   -1.3159    4.7972   -6.1656 H   0  0  0  0  0  0  0  0  0  0  0  0
   -1.4517    3.7125   -4.3747 H   0  0  0  0  0  0  0  0  0  0  0  0
   -3.5815    4.2484   -0.7188 H   0  0  0  0  0  0  0  0  0  0  0  0
   -3.2297    6.6803   -0.8608 H   0  0  0  0  0  0  0  0  0  0  0  0
   -1.1361    8.2193   -2.3548 H   0  0  0  0  0  0  0  0  0  0  0  0
   -5.6418    4.1123   -1.5437 H   0  0  0  0  0  0  0  0  0  0  0  0
   -6.1639    3.5645    0.0314 H   0  0  0  0  0  0  0  0  0  0  0  0
   -6.6724    2.8292   -0.9722 H   0  0  0  0  0  0  0  0  0  0  0  0
   -0.0041    0.0732   -0.0073 H   0  0  0  0  0  0  0  0  0  0  0  0
    1.0085    1.4478   -0.0033 H   0  0  0  0  0  0  0  0  0  0  0  0
   -2.7298    1.4678    2.0739 H   0  0  0  0  0  0  0  0  0  0  0  0
   -2.2046    0.0072    1.2039 H   0  0  0  0  0  0  0  0  0  0  0  0
    0.9888    1.3257    2.5324 H   0  0  0  0  0  0  0  0  0  0  0  0
   -0.5652    1.3544    3.3998 H   0  0  0  0  0  0  0  0  0  0  0  0
   -0.0886   -0.0899    2.4751 H   0  0  0  0  0  0  0  0  0  0  0  0
   -1.1947    3.5008    0.4262 H   0  0  0  0  0  0  0  0  0  0  0  0
   -1.2100    3.4476    2.2053 H   0  0  0  0  0  0  0  0  0  0  0  0
    0.3386    3.4365    1.3281 H   0  0  0  0  0  0  0  0  0  0  0  0
   -7.0031    1.5268   -5.4619 H   0  0  0  0  0  0  0  0  0  0  0  0
   -7.8922    0.9795   -4.0203 H   0  0  0  0  0  0  0  0  0  0  0  0
   -8.8578    3.4905   -3.9451 H   0  0  0  0  0  0  0  0  0  0  0  0
   -8.5897    2.4698   -6.7908 H   0  0  0  0  0  0  0  0  0  0  0  0
   -9.7118    3.8237   -6.1523 H   0  0  0  0  0  0  0  0  0  0  0  0
  1  2  1  0  0  0  0
  1 33  1  0  0  0  0
  1 34  1  0  0  0  0
  1 35  1  0  0  0  0
  2  3  1  0  0  0  0
  2 36  1  0  0  0  0
  2 37  1  0  0  0  0
  3  4  1  0  0  0  0
  4  9  2  0  0  0  0
  4  5  1  0  0  0  0
  5  6  2  0  0  0  0
  5 38  1  0  0  0  0
  6  7  1  0  0  0  0
  6 11  1  0  0  0  0
  7  8  2  0  0  0  0
  7 39  1  0  0  0  0
  8  9  1  0  0  0  0
  8 40  1  0  0  0  0
  9 10  1  0  0  0  0
 10 41  1  0  0  0  0
 11 12  1  0  0  0  0
 11 19  1  0  0  0  0
 11 13  1  0  0  0  0
 13 27  1  0  0  0  0
 13 15  2  0  0  0  0
 14 19  1  0  0  0  0
 15 16  1  0  0  0  0
 15 17  1  0  0  0  0
 16 42  1  0  0  0  0
 16 43  1  0  0  0  0
 16 44  1  0  0  0  0
 17 18  2  0  0  0  0
 18 24  1  0  0  0  0
 18 19  1  0  0  0  0
 19 20  1  0  0  0  0
 20 21  2  0  0  0  0
 20 22  1  0  0  0  0
 22 23  1  0  0  0  0
 22 45  1  0  0  0  0
 22 46  1  0  0  0  0
 23 24  1  0  0  0  0
 23 25  1  0  0  0  0
 23 26  1  0  0  0  0
 24 47  1  0  0  0  0
 24 48  1  0  0  0  0
 25 49  1  0  0  0  0
 25 50  1  0  0  0  0
 25 51  1  0  0  0  0
 26 52  1  0  0  0  0
 26 53  1  0  0  0  0
 26 54  1  0  0  0  0
 27 28  2  0  0  0  0
 27 29  1  0  0  0  0
 29 30  1  0  0  0  0
 30 31  1  0  0  0  0
 30 55  1  0  0  0  0
 30 56  1  0  0  0  0
 31 32  2  0  0  0  0
 31 57  1  0  0  0  0
 32 58  1  0  0  0  0
 32 59  1  0  0  0  0
M  END
$$$$
