ZINC00058174
  -OEChem-08230709403D

 28 31  0     0  0  0  0  0  0999 V2000
    0.1398   -4.2270   -0.0193 C   0  0  0  0  0  0  0  0  0  0  0  0
    0.0955   -2.8357   -0.0127 C   0  0  0  0  0  0  0  0  0  0  0  0
    1.3077   -2.1144   -0.0212 C   0  0  0  0  0  0  0  0  0  0  0  0
    1.2387   -0.6472   -0.0133 C   0  0  0  0  0  0  0  0  0  0  0  0
    2.4508    0.0742   -0.0207 C   0  0  0  0  0  0  0  0  0  0  0  0
    2.4065    1.4654   -0.0132 C   0  0  0  0  0  0  0  0  0  0  0  0
    1.1783    2.1065    0.0021 C   0  0  0  0  0  0  0  0  0  0  0  0
   -0.0168    1.3883    0.0097 C   0  0  0  0  0  0  0  0  0  0  0  0
    0.0021   -0.0041    0.0020 C   0  0  0  0  0  0  0  0  0  0  0  0
   -1.1428   -0.7259    0.0096 O   0  0  0  0  0  0  0  0  0  0  0  0
   -1.1584   -2.0723    0.0032 C   0  0  0  0  0  0  0  0  0  0  0  0
   -2.2221   -2.6621    0.0102 O   0  0  0  0  0  0  0  0  0  0  0  0
   -1.2040    2.0493    0.0189 O   0  0  0  0  0  0  0  0  0  0  0  0
    1.1376    3.4656    0.0094 O   0  0  0  0  0  0  0  0  0  0  0  0
    3.7048   -0.6892   -0.0360 C   0  0  0  0  0  0  0  0  0  0  0  0
    4.7685   -0.0995   -0.0432 O   0  0  0  0  0  0  0  0  0  0  0  0
    3.6892   -2.0357   -0.0425 O   0  0  0  0  0  0  0  0  0  0  0  0
    2.5443   -2.7575   -0.0355 C   0  0  0  0  0  0  0  0  0  0  0  0
    2.5631   -4.1499   -0.0420 C   0  0  0  0  0  0  0  0  0  0  0  0
    1.3679   -4.8681   -0.0340 C   0  0  0  0  0  0  0  0  0  0  0  0
    1.4087   -6.2272   -0.0404 O   0  0  0  0  0  0  0  0  0  0  0  0
    3.7502   -4.8110   -0.0555 O   0  0  0  0  0  0  0  0  0  0  0  0
   -0.7748   -4.8013   -0.0126 H   0  0  0  0  0  0  0  0  0  0  0  0
    3.3211    2.0398   -0.0185 H   0  0  0  0  0  0  0  0  0  0  0  0
   -1.5434    2.2358    0.9049 H   0  0  0  0  0  0  0  0  0  0  0  0
    1.1341    3.8542    0.8949 H   0  0  0  0  0  0  0  0  0  0  0  0
    1.4119   -6.6164   -0.9256 H   0  0  0  0  0  0  0  0  0  0  0  0
    4.0857   -4.9987   -0.9428 H   0  0  0  0  0  0  0  0  0  0  0  0
  1 20  2  0  0  0  0
  1  2  1  0  0  0  0
  1 23  1  0  0  0  0
  2 11  1  0  0  0  0
  2  3  2  0  0  0  0
  3 18  1  0  0  0  0
  3  4  1  0  0  0  0
  4  9  2  0  0  0  0
  4  5  1  0  0  0  0
  5  6  2  0  0  0  0
  5 15  1  0  0  0  0
  6  7  1  0  0  0  0
  6 24  1  0  0  0  0
  7  8  2  0  0  0  0
  7 14  1  0  0  0  0
  8  9  1  0  0  0  0
  8 13  1  0  0  0  0
  9 10  1  0  0  0  0
 10 11  1  0  0  0  0
 11 12  2  0  0  0  0
 13 25  1  0  0  0  0
 14 26  1  0  0  0  0
 15 16  2  0  0  0  0
 15 17  1  0  0  0  0
 17 18  1  0  0  0  0
 18 19  2  0  0  0  0
 19 20  1  0  0  0  0
 19 22  1  0  0  0  0
 20 21  1  0  0  0  0
 21 27  1  0  0  0  0
 22 28  1  0  0  0  0
M  END
$$$$
ZINC00601820
  -OEChem-08230709403D

 40 43  0     0  0  0  0  0  0999 V2000
    0.0591    1.0896    0.1025 C   0  0  0  0  0  0  0  0  0  0  0  0
   -0.4512    1.5807    1.3849 N   0  0  0  0  0  0  0  0  0  0  0  0
   -0.5646    2.9313    1.5982 C   0  0  0  0  0  0  0  0  0  0  0  0
   -1.0598    3.4211    2.8262 C   0  0  0  0  0  0  0  0  0  0  0  0
   -1.4333    2.5225    3.8517 C   0  0  0  0  0  0  0  0  0  0  0  0
   -1.3114    1.1768    3.6318 C   0  0  0  0  0  0  0  0  0  0  0  0
   -0.7992    0.7020    2.3445 C   0  0  0  0  0  0  0  0  0  0  0  0
   -0.6876   -0.4937    2.1405 O   0  0  0  0  0  0  0  0  0  0  0  0
   -1.6939    0.2094    4.6868 C   0  0  0  0  0  0  0  0  0  0  0  0
   -0.7486   -0.2216    5.6184 C   0  0  0  0  0  0  0  0  0  0  0  0
   -1.1129   -1.1199    6.6022 C   0  0  0  0  0  0  0  0  0  0  0  0
   -2.4088   -1.6003    6.6589 C   0  0  0  0  0  0  0  0  0  0  0  0
   -3.3493   -1.1811    5.7353 C   0  0  0  0  0  0  0  0  0  0  0  0
   -2.9995   -0.2791    4.7496 C   0  0  0  0  0  0  0  0  0  0  0  0
   -4.1812    0.2452    3.5911 Cl  0  0  0  0  0  0  0  0  0  0  0  0
    0.8802    0.3746    5.5445 Cl  0  0  0  0  0  0  0  0  0  0  0  0
   -1.1651    4.8089    3.0016 C   0  0  0  0  0  0  0  0  0  0  0  0
   -0.8015    5.6004    2.0099 N   0  0  0  0  0  0  0  0  0  0  0  0
   -0.3442    5.1038    0.8660 C   0  0  0  0  0  0  0  0  0  0  0  0
   -0.2270    3.8022    0.6537 N   0  0  0  0  0  0  0  0  0  0  0  0
    0.0231    5.9781   -0.1398 N   0  0  0  0  0  0  0  0  0  0  0  0
   -0.1964    7.3460    0.0113 C   0  0  0  0  0  0  0  0  0  0  0  0
   -1.3017    7.8194    0.7175 C   0  0  0  0  0  0  0  0  0  0  0  0
   -1.4807    9.1807    0.8480 C   0  0  0  0  0  0  0  0  0  0  0  0
   -0.6279   10.0303    0.3069 N   0  0  0  0  0  0  0  0  0  0  0  0
    0.4274    9.6218   -0.3726 C   0  0  0  0  0  0  0  0  0  0  0  0
    0.6804    8.2770   -0.5446 C   0  0  0  0  0  0  0  0  0  0  0  0
    0.0840   -0.0001    0.1147 H   0  0  0  0  0  0  0  0  0  0  0  0
    1.0660    1.4743   -0.0592 H   0  0  0  0  0  0  0  0  0  0  0  0
   -0.5932    1.4291   -0.7022 H   0  0  0  0  0  0  0  0  0  0  0  0
   -1.8093    2.8921    4.7943 H   0  0  0  0  0  0  0  0  0  0  0  0
   -0.3832   -1.4511    7.3264 H   0  0  0  0  0  0  0  0  0  0  0  0
   -2.6874   -2.3060    7.4275 H   0  0  0  0  0  0  0  0  0  0  0  0
   -4.3594   -1.5602    5.7848 H   0  0  0  0  0  0  0  0  0  0  0  0
   -1.5356    5.2210    3.9287 H   0  0  0  0  0  0  0  0  0  0  0  0
    0.4337    5.6395   -0.9508 H   0  0  0  0  0  0  0  0  0  0  0  0
   -2.0057    7.1297    1.1593 H   0  0  0  0  0  0  0  0  0  0  0  0
   -2.3320    9.5564    1.3964 H   0  0  0  0  0  0  0  0  0  0  0  0
    1.1010   10.3500   -0.7996 H   0  0  0  0  0  0  0  0  0  0  0  0
    1.5454    7.9496   -1.1023 H   0  0  0  0  0  0  0  0  0  0  0  0
  1  2  1  0  0  0  0
  1 28  1  0  0  0  0
  1 29  1  0  0  0  0
  1 30  1  0  0  0  0
  2  7  1  0  0  0  0
  2  3  1  0  0  0  0
  3 20  2  0  0  0  0
  3  4  1  0  0  0  0
  4  5  1  0  0  0  0
  4 17  2  0  0  0  0
  5  6  2  0  0  0  0
  5 31  1  0  0  0  0
  6  7  1  0  0  0  0
  6  9  1  0  0  0  0
  7  8  2  0  0  0  0
  9 14  2  0  0  0  0
  9 10  1  0  0  0  0
 10 11  2  0  0  0  0
 10 16  1  0  0  0  0
 11 12  1  0  0  0  0
 11 32  1  0  0  0  0
 12 13  2  0  0  0  0
 12 33  1  0  0  0  0
 13 14  1  0  0  0  0
 13 34  1  0  0  0  0
 14 15  1  0  0  0  0
 17 18  1  0  0  0  0
 17 35  1  0  0  0  0
 18 19  2  0  0  0  0
 19 20  1  0  0  0  0
 19 21  1  0  0  0  0
 21 22  1  0  0  0  0
 21 36  1  0  0  0  0
 22 27  2  0  0  0  0
 22 23  1  0  0  0  0
 23 24  2  0  0  0  0
 23 37  1  0  0  0  0
 24 25  1  0  0  0  0
 24 38  1  0  0  0  0
 25 26  2  0  0  0  0
 26 27  1  0  0  0  0
 26 39  1  0  0  0  0
 27 40  1  0  0  0  0
M  END
$$$$
ZINC00838734
  -OEChem-08230709403D

 41 44  0     0  0  0  0  0  0999 V2000
    0.0685    1.0902    0.1116 C   0  0  0  0  0  0  0  0  0  0  0  0
   -0.4262    1.5833    1.3993 N   0  0  0  0  0  0  0  0  0  0  0  0
   -0.5385    2.9342    1.6114 C   0  0  0  0  0  0  0  0  0  0  0  0
   -1.0181    3.4258    2.8448 C   0  0  0  0  0  0  0  0  0  0  0  0
   -1.3769    2.5290    3.8769 C   0  0  0  0  0  0  0  0  0  0  0  0
   -1.2565    1.1829    3.6581 C   0  0  0  0  0  0  0  0  0  0  0  0
   -0.7608    0.7061    2.3651 C   0  0  0  0  0  0  0  0  0  0  0  0
   -0.6510   -0.4900    2.1618 O   0  0  0  0  0  0  0  0  0  0  0  0
   -1.6239    0.2172    4.7199 C   0  0  0  0  0  0  0  0  0  0  0  0
   -0.6659   -0.2109    5.6398 C   0  0  0  0  0  0  0  0  0  0  0  0
   -1.0162   -1.1072    6.6305 C   0  0  0  0  0  0  0  0  0  0  0  0
   -2.3108   -1.5889    6.7053 C   0  0  0  0  0  0  0  0  0  0  0  0
   -3.2639   -1.1726    5.7933 C   0  0  0  0  0  0  0  0  0  0  0  0
   -2.9280   -0.2726    4.8010 C   0  0  0  0  0  0  0  0  0  0  0  0
   -4.1254    0.2477    3.6568 Cl  0  0  0  0  0  0  0  0  0  0  0  0
    0.9613    0.3864    5.5428 Cl  0  0  0  0  0  0  0  0  0  0  0  0
   -1.1230    4.8140    3.0188 C   0  0  0  0  0  0  0  0  0  0  0  0
   -0.7738    5.6039    2.0208 N   0  0  0  0  0  0  0  0  0  0  0  0
   -0.3311    5.1056    0.8717 C   0  0  0  0  0  0  0  0  0  0  0  0
   -0.2145    3.8035    0.6608 N   0  0  0  0  0  0  0  0  0  0  0  0
    0.0210    5.9779   -0.1404 N   0  0  0  0  0  0  0  0  0  0  0  0
   -0.1997    7.3500    0.0111 C   0  0  0  0  0  0  0  0  0  0  0  0
   -1.3057    7.8032    0.7189 C   0  0  0  0  0  0  0  0  0  0  0  0
   -1.5178    9.1593    0.8713 C   0  0  0  0  0  0  0  0  0  0  0  0
   -0.6364   10.0658    0.3112 C   0  0  0  0  0  0  0  0  0  0  0  0
    0.4626    9.6181   -0.3989 C   0  0  0  0  0  0  0  0  0  0  0  0
    0.6834    8.2633   -0.5505 C   0  0  0  0  0  0  0  0  0  0  0  0
    0.0950    0.0006    0.1257 H   0  0  0  0  0  0  0  0  0  0  0  0
    1.0729    1.4758   -0.0636 H   0  0  0  0  0  0  0  0  0  0  0  0
   -0.5942    1.4272   -0.6854 H   0  0  0  0  0  0  0  0  0  0  0  0
   -1.7408    2.9001    4.8236 H   0  0  0  0  0  0  0  0  0  0  0  0
   -0.2768   -1.4359    7.3458 H   0  0  0  0  0  0  0  0  0  0  0  0
   -2.5784   -2.2933    7.4789 H   0  0  0  0  0  0  0  0  0  0  0  0
   -4.2729   -1.5525    5.8572 H   0  0  0  0  0  0  0  0  0  0  0  0
   -1.4816    5.2275    3.9499 H   0  0  0  0  0  0  0  0  0  0  0  0
    0.4212    5.6382   -0.9561 H   0  0  0  0  0  0  0  0  0  0  0  0
   -1.9966    7.0958    1.1531 H   0  0  0  0  0  0  0  0  0  0  0  0
   -2.3753    9.5123    1.4249 H   0  0  0  0  0  0  0  0  0  0  0  0
   -0.8068   11.1258    0.4283 H   0  0  0  0  0  0  0  0  0  0  0  0
    1.1490   10.3287   -0.8350 H   0  0  0  0  0  0  0  0  0  0  0  0
    1.5417    7.9142   -1.1055 H   0  0  0  0  0  0  0  0  0  0  0  0
  1  2  1  0  0  0  0
  1 28  1  0  0  0  0
  1 29  1  0  0  0  0
  1 30  1  0  0  0  0
  2  7  1  0  0  0  0
  2  3  1  0  0  0  0
  3 20  2  0  0  0  0
  3  4  1  0  0  0  0
  4  5  1  0  0  0  0
  4 17  2  0  0  0  0
  5  6  2  0  0  0  0
  5 31  1  0  0  0  0
  6  7  1  0  0  0  0
  6  9  1  0  0  0  0
  7  8  2  0  0  0  0
  9 14  2  0  0  0  0
  9 10  1  0  0  0  0
 10 11  2  0  0  0  0
 10 16  1  0  0  0  0
 11 12  1  0  0  0  0
 11 32  1  0  0  0  0
 12 13  2  0  0  0  0
 12 33  1  0  0  0  0
 13 14  1  0  0  0  0
 13 34  1  0  0  0  0
 14 15  1  0  0  0  0
 17 18  1  0  0  0  0
 17 35  1  0  0  0  0
 18 19  2  0  0  0  0
 19 20  1  0  0  0  0
 19 21  1  0  0  0  0
 21 22  1  0  0  0  0
 21 36  1  0  0  0  0
 22 27  2  0  0  0  0
 22 23  1  0  0  0  0
 23 24  2  0  0  0  0
 23 37  1  0  0  0  0
 24 25  1  0  0  0  0
 24 38  1  0  0  0  0
 25 26  2  0  0  0  0
 25 39  1  0  0  0  0
 26 27  1  0  0  0  0
 26 40  1  0  0  0  0
 27 41  1  0  0  0  0
M  END
$$$$
ZINC00839396
  -OEChem-08230709403D

 38 41  0     0  0  0  0  0  0999 V2000
   -1.9995    4.6198    1.0453 C   0  0  0  0  0  0  0  0  0  0  0  0
   -0.8894    3.8185    0.8616 C   0  0  0  0  0  0  0  0  0  0  0  0
    0.2526    4.3412    0.2685 C   0  0  0  0  0  0  0  0  0  0  0  0
    0.2766    5.6705   -0.1337 C   0  0  0  0  0  0  0  0  0  0  0  0
   -0.8390    6.4657    0.0480 C   0  0  0  0  0  0  0  0  0  0  0  0
   -1.9753    5.9411    0.6395 C   0  0  0  0  0  0  0  0  0  0  0  0
   -0.8131    8.1256   -0.4599 Cl  0  0  0  0  0  0  0  0  0  0  0  0
    1.3776    3.5326    0.0819 N   0  0  0  0  0  0  0  0  0  0  0  0
    1.2240    2.1818   -0.1679 C   0  0  0  0  0  0  0  0  0  0  0  0
    2.3407    1.3331   -0.2497 C   0  0  0  0  0  0  0  0  0  0  0  0
    2.1280   -0.0355   -0.5068 C   0  0  0  0  0  0  0  0  0  0  0  0
    3.3548   -0.6260   -0.5363 N   0  0  0  0  0  0  0  0  0  0  0  0
    3.5248   -1.5979   -0.6990 H   0  0  0  0  0  0  0  0  0  0  0  0
    4.3401    0.3394   -0.3034 N   0  0  0  0  0  0  0  0  0  0  0  0
    3.7845    1.5111   -0.1289 C   0  0  0  0  0  0  0  0  0  0  0  0
    4.4506    2.7116    0.1267 N   0  0  0  0  0  0  0  0  0  0  0  0
    5.8350    2.7140    0.3310 C   0  0  0  0  0  0  0  0  0  0  0  0
    6.4602    1.5954    0.8665 C   0  0  0  0  0  0  0  0  0  0  0  0
    7.8272    1.5965    1.0624 C   0  0  0  0  0  0  0  0  0  0  0  0
    8.5742    2.7186    0.7352 C   0  0  0  0  0  0  0  0  0  0  0  0
    7.9499    3.8384    0.2057 C   0  0  0  0  0  0  0  0  0  0  0  0
    6.5838    3.8370    0.0037 C   0  0  0  0  0  0  0  0  0  0  0  0
    9.9195    2.7210    0.9342 O   0  0  0  0  0  0  0  0  0  0  0  0
    0.8771   -0.4696   -0.6618 N   0  0  0  0  0  0  0  0  0  0  0  0
   -0.1372    0.3627   -0.5765 C   0  0  0  0  0  0  0  0  0  0  0  0
    0.0160    1.6531   -0.3371 N   0  0  0  0  0  0  0  0  0  0  0  0
   -2.8874    4.2135    1.5068 H   0  0  0  0  0  0  0  0  0  0  0  0
   -0.9095    2.7863    1.1787 H   0  0  0  0  0  0  0  0  0  0  0  0
    1.1645    6.0810   -0.5914 H   0  0  0  0  0  0  0  0  0  0  0  0
   -2.8445    6.5654    0.7847 H   0  0  0  0  0  0  0  0  0  0  0  0
    2.2659    3.9195    0.1276 H   0  0  0  0  0  0  0  0  0  0  0  0
    3.9536    3.5439    0.1625 H   0  0  0  0  0  0  0  0  0  0  0  0
    5.8781    0.7234    1.1257 H   0  0  0  0  0  0  0  0  0  0  0  0
    8.3143    0.7250    1.4743 H   0  0  0  0  0  0  0  0  0  0  0  0
    8.5324    4.7114   -0.0490 H   0  0  0  0  0  0  0  0  0  0  0  0
    6.0979    4.7088   -0.4089 H   0  0  0  0  0  0  0  0  0  0  0  0
   10.1875    3.0397    1.8070 H   0  0  0  0  0  0  0  0  0  0  0  0
   -1.1369   -0.0244   -0.7079 H   0  0  0  0  0  0  0  0  0  0  0  0
  1  6  2  0  0  0  0
  1  2  1  0  0  0  0
  1 27  1  0  0  0  0
  2  3  2  0  0  0  0
  2 28  1  0  0  0  0
  3  4  1  0  0  0  0
  3  8  1  0  0  0  0
  4  5  2  0  0  0  0
  4 29  1  0  0  0  0
  5  6  1  0  0  0  0
  5  7  1  0  0  0  0
  6 30  1  0  0  0  0
  8  9  1  0  0  0  0
  8 31  1  0  0  0  0
  9 26  2  0  0  0  0
  9 10  1  0  0  0  0
 10 15  1  0  0  0  0
 10 11  2  0  0  0  0
 11 12  1  0  0  0  0
 11 24  1  0  0  0  0
 12 13  1  0  0  0  0
 12 14  1  0  0  0  0
 14 15  2  0  0  0  0
 15 16  1  0  0  0  0
 16 17  1  0  0  0  0
 16 32  1  0  0  0  0
 17 22  2  0  0  0  0
 17 18  1  0  0  0  0
 18 19  2  0  0  0  0
 18 33  1  0  0  0  0
 19 20  1  0  0  0  0
 19 34  1  0  0  0  0
 20 21  2  0  0  0  0
 20 23  1  0  0  0  0
 21 22  1  0  0  0  0
 21 35  1  0  0  0  0
 22 36  1  0  0  0  0
 23 37  1  0  0  0  0
 24 25  2  0  0  0  0
 25 26  1  0  0  0  0
 25 38  1  0  0  0  0
M  END
$$$$
ZINC01609260
  -OEChem-08230709403D

 36 39  0     0  0  0  0  0  0999 V2000
   -0.8018   -5.5010   -0.0193 C   0  0  0  0  0  0  0  0  0  0  0  0
    0.2183   -5.3887   -0.9469 C   0  0  0  0  0  0  0  0  0  0  0  0
    1.0287   -4.2719   -0.9536 C   0  0  0  0  0  0  0  0  0  0  0  0
    0.8181   -3.2556   -0.0226 C   0  0  0  0  0  0  0  0  0  0  0  0
   -0.2077   -3.3771    0.9139 C   0  0  0  0  0  0  0  0  0  0  0  0
   -1.0156   -4.4958    0.9069 C   0  0  0  0  0  0  0  0  0  0  0  0
    1.6851   -2.0534   -0.0246 C   0  0  0  0  0  0  0  0  0  0  0  0
    3.0408   -2.0315   -0.0372 C   0  0  0  0  0  0  0  0  0  0  0  0
    3.4801   -0.7343   -0.0347 N   0  0  0  0  0  0  0  0  0  0  0  0
    2.4135    0.1274   -0.0203 C   0  0  0  0  0  0  0  0  0  0  0  0
    1.2440   -0.6524   -0.0133 C   0  0  0  0  0  0  0  0  0  0  0  0
    0.0021   -0.0041    0.0020 C   0  0  0  0  0  0  0  0  0  0  0  0
   -0.0160    1.3262    0.0093 N   0  0  0  0  0  0  0  0  0  0  0  0
    1.1067    2.0214    0.0023 C   0  0  0  0  0  0  0  0  0  0  0  0
    2.2936    1.4540   -0.0124 N   0  0  0  0  0  0  0  0  0  0  0  0
   -1.1762   -0.7291    0.0089 N   0  0  0  0  0  0  0  0  0  0  0  0
    4.8254   -0.3439   -0.0444 C   0  0  0  0  0  0  0  0  0  0  0  0
    5.2714    0.5924   -0.9676 C   0  0  0  0  0  0  0  0  0  0  0  0
    6.5970    0.9802   -0.9703 C   0  0  0  0  0  0  0  0  0  0  0  0
    7.4824    0.4276   -0.0631 C   0  0  0  0  0  0  0  0  0  0  0  0
    7.0425   -0.5097    0.8535 C   0  0  0  0  0  0  0  0  0  0  0  0
    5.7168   -0.8967    0.8656 C   0  0  0  0  0  0  0  0  0  0  0  0
   -1.4340   -6.3766   -0.0183 H   0  0  0  0  0  0  0  0  0  0  0  0
    0.3805   -6.1766   -1.6676 H   0  0  0  0  0  0  0  0  0  0  0  0
    1.8243   -4.1850   -1.6787 H   0  0  0  0  0  0  0  0  0  0  0  0
   -0.3724   -2.5952    1.6404 H   0  0  0  0  0  0  0  0  0  0  0  0
   -1.8133   -4.5891    1.6290 H   0  0  0  0  0  0  0  0  0  0  0  0
    3.6772   -2.9041   -0.0473 H   0  0  0  0  0  0  0  0  0  0  0  0
    1.0482    3.0998    0.0083 H   0  0  0  0  0  0  0  0  0  0  0  0
   -2.0294   -0.2679    0.0192 H   0  0  0  0  0  0  0  0  0  0  0  0
   -1.1490   -1.6987    0.0035 H   0  0  0  0  0  0  0  0  0  0  0  0
    4.5815    1.0209   -1.6795 H   0  0  0  0  0  0  0  0  0  0  0  0
    6.9435    1.7123   -1.6847 H   0  0  0  0  0  0  0  0  0  0  0  0
    8.5195    0.7288   -0.0703 H   0  0  0  0  0  0  0  0  0  0  0  0
    7.7363   -0.9393    1.5610 H   0  0  0  0  0  0  0  0  0  0  0  0
    5.3736   -1.6282    1.5822 H   0  0  0  0  0  0  0  0  0  0  0  0
  1  6  2  0  0  0  0
  1  2  1  0  0  0  0
  1 23  1  0  0  0  0
  2  3  2  0  0  0  0
  2 24  1  0  0  0  0
  3  4  1  0  0  0  0
  3 25  1  0  0  0  0
  4  5  2  0  0  0  0
  4  7  1  0  0  0  0
  5  6  1  0  0  0  0
  5 26  1  0  0  0  0
  6 27  1  0  0  0  0
  7 11  1  0  0  0  0
  7  8  2  0  0  0  0
  8  9  1  0  0  0  0
  8 28  1  0  0  0  0
  9 10  1  0  0  0  0
  9 17  1  0  0  0  0
 10 15  2  0  0  0  0
 10 11  1  0  0  0  0
 11 12  2  0  0  0  0
 12 13  1  0  0  0  0
 12 16  1  0  0  0  0
 13 14  2  0  0  0  0
 14 15  1  0  0  0  0
 14 29  1  0  0  0  0
 16 30  1  0  0  0  0
 16 31  1  0  0  0  0
 17 22  2  0  0  0  0
 17 18  1  0  0  0  0
 18 19  2  0  0  0  0
 18 32  1  0  0  0  0
 19 20  1  0  0  0  0
 19 33  1  0  0  0  0
 20 21  2  0  0  0  0
 20 34  1  0  0  0  0
 21 22  1  0  0  0  0
 21 35  1  0  0  0  0
 22 36  1  0  0  0  0
M  END
$$$$
ZINC01609268
  -OEChem-08230709403D

 40 43  0     0  0  0  0  0  0999 V2000
   -2.6307   -6.6583    0.9712 C   0  0  0  0  0  0  0  0  0  0  0  0
   -1.5977   -6.6056   -0.0148 O   0  0  0  0  0  0  0  0  0  0  0  0
   -0.8031   -5.5028   -0.0177 C   0  0  0  0  0  0  0  0  0  0  0  0
    0.2194   -5.3885   -0.9494 C   0  0  0  0  0  0  0  0  0  0  0  0
    1.0281   -4.2712   -0.9546 C   0  0  0  0  0  0  0  0  0  0  0  0
    0.8172   -3.2556   -0.0228 C   0  0  0  0  0  0  0  0  0  0  0  0
   -0.2077   -3.3758    0.9148 C   0  0  0  0  0  0  0  0  0  0  0  0
   -1.0158   -4.4936    0.9113 C   0  0  0  0  0  0  0  0  0  0  0  0
    1.6848   -2.0534   -0.0251 C   0  0  0  0  0  0  0  0  0  0  0  0
    3.0402   -2.0322   -0.0379 C   0  0  0  0  0  0  0  0  0  0  0  0
    3.4801   -0.7341   -0.0351 N   0  0  0  0  0  0  0  0  0  0  0  0
    2.4136    0.1274   -0.0203 C   0  0  0  0  0  0  0  0  0  0  0  0
    1.2440   -0.6525   -0.0133 C   0  0  0  0  0  0  0  0  0  0  0  0
    0.0021   -0.0041    0.0020 C   0  0  0  0  0  0  0  0  0  0  0  0
   -0.0160    1.3262    0.0093 N   0  0  0  0  0  0  0  0  0  0  0  0
    1.1068    2.0215    0.0023 C   0  0  0  0  0  0  0  0  0  0  0  0
    2.2937    1.4541   -0.0120 N   0  0  0  0  0  0  0  0  0  0  0  0
   -1.1762   -0.7291    0.0089 N   0  0  0  0  0  0  0  0  0  0  0  0
    4.8253   -0.3438   -0.0458 C   0  0  0  0  0  0  0  0  0  0  0  0
    5.2708    0.5925   -0.9694 C   0  0  0  0  0  0  0  0  0  0  0  0
    6.5967    0.9791   -0.9740 C   0  0  0  0  0  0  0  0  0  0  0  0
    7.4827    0.4266   -0.0674 C   0  0  0  0  0  0  0  0  0  0  0  0
    7.0434   -0.5103    0.8499 C   0  0  0  0  0  0  0  0  0  0  0  0
    5.7175   -0.8968    0.8633 C   0  0  0  0  0  0  0  0  0  0  0  0
   -2.1864   -6.6147    1.9656 H   0  0  0  0  0  0  0  0  0  0  0  0
   -3.3046   -5.8121    0.8369 H   0  0  0  0  0  0  0  0  0  0  0  0
   -3.1890   -7.5882    0.8631 H   0  0  0  0  0  0  0  0  0  0  0  0
    0.3822   -6.1755   -1.6709 H   0  0  0  0  0  0  0  0  0  0  0  0
    1.8239   -4.1832   -1.6793 H   0  0  0  0  0  0  0  0  0  0  0  0
   -0.3709   -2.5930    1.6407 H   0  0  0  0  0  0  0  0  0  0  0  0
   -1.8125   -4.5855    1.6347 H   0  0  0  0  0  0  0  0  0  0  0  0
    3.6763   -2.9049   -0.0481 H   0  0  0  0  0  0  0  0  0  0  0  0
    1.0482    3.0998    0.0087 H   0  0  0  0  0  0  0  0  0  0  0  0
   -2.0294   -0.2678    0.0192 H   0  0  0  0  0  0  0  0  0  0  0  0
   -1.1490   -1.6987    0.0035 H   0  0  0  0  0  0  0  0  0  0  0  0
    4.5802    1.0214   -1.6805 H   0  0  0  0  0  0  0  0  0  0  0  0
    6.9428    1.7107   -1.6892 H   0  0  0  0  0  0  0  0  0  0  0  0
    8.5198    0.7278   -0.0755 H   0  0  0  0  0  0  0  0  0  0  0  0
    7.7377   -0.9401    1.5567 H   0  0  0  0  0  0  0  0  0  0  0  0
    5.3748   -1.6281    1.5804 H   0  0  0  0  0  0  0  0  0  0  0  0
  1  2  1  0  0  0  0
  1 25  1  0  0  0  0
  1 26  1  0  0  0  0
  1 27  1  0  0  0  0
  2  3  1  0  0  0  0
  3  8  2  0  0  0  0
  3  4  1  0  0  0  0
  4  5  2  0  0  0  0
  4 28  1  0  0  0  0
  5  6  1  0  0  0  0
  5 29  1  0  0  0  0
  6  7  2  0  0  0  0
  6  9  1  0  0  0  0
  7  8  1  0  0  0  0
  7 30  1  0  0  0  0
  8 31  1  0  0  0  0
  9 13  1  0  0  0  0
  9 10  2  0  0  0  0
 10 11  1  0  0  0  0
 10 32  1  0  0  0  0
 11 12  1  0  0  0  0
 11 19  1  0  0  0  0
 12 17  2  0  0  0  0
 12 13  1  0  0  0  0
 13 14  2  0  0  0  0
 14 15  1  0  0  0  0
 14 18  1  0  0  0  0
 15 16  2  0  0  0  0
 16 17  1  0  0  0  0
 16 33  1  0  0  0  0
 18 34  1  0  0  0  0
 18 35  1  0  0  0  0
 19 24  2  0  0  0  0
 19 20  1  0  0  0  0
 20 21  2  0  0  0  0
 20 36  1  0  0  0  0
 21 22  1  0  0  0  0
 21 37  1  0  0  0  0
 22 23  2  0  0  0  0
 22 38  1  0  0  0  0
 23 24  1  0  0  0  0
 23 39  1  0  0  0  0
 24 40  1  0  0  0  0
M  END
$$$$
ZINC01916185
  -OEChem-08230709403D

 40 43  0     0  0  0  0  0  0999 V2000
   -2.0764    2.1388    2.0659 C   0  0  0  0  0  0  0  0  0  0  0  0
   -3.3831    2.5571    2.2088 C   0  0  0  0  0  0  0  0  0  0  0  0
   -4.0304    2.4072    3.4369 C   0  0  0  0  0  0  0  0  0  0  0  0
   -3.3506    1.8299    4.5113 C   0  0  0  0  0  0  0  0  0  0  0  0
   -2.0456    1.4117    4.3531 C   0  0  0  0  0  0  0  0  0  0  0  0
   -1.4104    1.5628    3.1332 C   0  0  0  0  0  0  0  0  0  0  0  0
    0.0153    1.1034    2.9681 C   0  0  0  0  0  0  0  0  0  0  0  0
    0.0304   -0.2936    2.5272 N   0  0  0  0  0  0  0  0  0  0  0  0
    0.0531   -1.3915    3.3722 C   0  0  0  0  0  0  0  0  0  0  0  0
    0.0684   -1.5024    4.7593 C   0  0  0  0  0  0  0  0  0  0  0  0
    0.0912   -2.7496    5.3539 C   0  0  0  0  0  0  0  0  0  0  0  0
    0.0994   -3.9047    4.5717 C   0  0  0  0  0  0  0  0  0  0  0  0
    0.0843   -3.8083    3.1944 C   0  0  0  0  0  0  0  0  0  0  0  0
    0.0609   -2.5532    2.5874 C   0  0  0  0  0  0  0  0  0  0  0  0
    0.0414   -2.1100    1.1807 C   0  0  0  0  0  0  0  0  0  0  0  0
    0.0231   -0.7081    1.2046 C   0  0  0  0  0  0  0  0  0  0  0  0
    0.0021   -0.0041    0.0020 C   0  0  0  0  0  0  0  0  0  0  0  0
   -0.0058   -0.6919   -1.2024 C   0  0  0  0  0  0  0  0  0  0  0  0
    0.0170   -2.0814   -1.2188 C   0  0  0  0  0  0  0  0  0  0  0  0
    0.0382   -2.7892   -0.0364 C   0  0  0  0  0  0  0  0  0  0  0  0
   -0.0315   -0.0023   -2.3745 O   0  0  0  0  0  0  0  0  0  0  0  0
   -0.0164    1.3567    0.0095 O   0  0  0  0  0  0  0  0  0  0  0  0
    0.1218   -5.1281    5.1669 O   0  0  0  0  0  0  0  0  0  0  0  0
    0.1061   -2.8515    6.7099 O   0  0  0  0  0  0  0  0  0  0  0  0
   -5.3850    2.8441    3.5940 C   0  0  0  0  0  0  0  0  0  0  0  0
   -6.4597    3.1907    3.7186 N   0  0  0  0  0  0  0  0  0  0  0  0
   -1.5732    2.2578    1.1178 H   0  0  0  0  0  0  0  0  0  0  0  0
   -3.9031    3.0028    1.3737 H   0  0  0  0  0  0  0  0  0  0  0  0
   -3.8455    1.7108    5.4638 H   0  0  0  0  0  0  0  0  0  0  0  0
   -1.5187    0.9650    5.1833 H   0  0  0  0  0  0  0  0  0  0  0  0
    0.5374    1.1894    3.9210 H   0  0  0  0  0  0  0  0  0  0  0  0
    0.5133    1.7247    2.2236 H   0  0  0  0  0  0  0  0  0  0  0  0
    0.0622   -0.6128    5.3717 H   0  0  0  0  0  0  0  0  0  0  0  0
    0.0911   -4.7026    2.5889 H   0  0  0  0  0  0  0  0  0  0  0  0
    0.0142   -2.6085   -2.1614 H   0  0  0  0  0  0  0  0  0  0  0  0
    0.0521   -3.8689   -0.0529 H   0  0  0  0  0  0  0  0  0  0  0  0
    0.8443    0.2088   -2.7259 H   0  0  0  0  0  0  0  0  0  0  0  0
    0.8616    1.7620    0.0033 H   0  0  0  0  0  0  0  0  0  0  0  0
   -0.7550   -5.4938    5.3475 H   0  0  0  0  0  0  0  0  0  0  0  0
   -0.7729   -2.8929    7.1109 H   0  0  0  0  0  0  0  0  0  0  0  0
  1  6  2  0  0  0  0
  1  2  1  0  0  0  0
  1 27  1  0  0  0  0
  2  3  2  0  0  0  0
  2 28  1  0  0  0  0
  3  4  1  0  0  0  0
  3 25  1  0  0  0  0
  4  5  2  0  0  0  0
  4 29  1  0  0  0  0
  5  6  1  0  0  0  0
  5 30  1  0  0  0  0
  6  7  1  0  0  0  0
  7  8  1  0  0  0  0
  7 31  1  0  0  0  0
  7 32  1  0  0  0  0
  8 16  1  0  0  0  0
  8  9  1  0  0  0  0
  9 14  2  0  0  0  0
  9 10  1  0  0  0  0
 10 11  2  0  0  0  0
 10 33  1  0  0  0  0
 11 12  1  0  0  0  0
 11 24  1  0  0  0  0
 12 13  2  0  0  0  0
 12 23  1  0  0  0  0
 13 14  1  0  0  0  0
 13 34  1  0  0  0  0
 14 15  1  0  0  0  0
 15 20  2  0  0  0  0
 15 16  1  0  0  0  0
 16 17  2  0  0  0  0
 17 18  1  0  0  0  0
 17 22  1  0  0  0  0
 18 19  2  0  0  0  0
 18 21  1  0  0  0  0
 19 20  1  0  0  0  0
 19 35  1  0  0  0  0
 20 36  1  0  0  0  0
 21 37  1  0  0  0  0
 22 38  1  0  0  0  0
 23 39  1  0  0  0  0
 24 40  1  0  0  0  0
 25 26  3  0  0  0  0
M  END
$$$$
ZINC01916192
  -OEChem-08230709403D

 52 56  0     0  0  0  0  0  0999 V2000
   -5.5602    7.2579    4.9920 C   0  0  0  0  0  0  0  0  0  0  0  0
   -5.5965    6.9599    3.6426 C   0  0  0  0  0  0  0  0  0  0  0  0
   -5.6367    5.6423    3.2265 C   0  0  0  0  0  0  0  0  0  0  0  0
   -5.6411    4.6226    4.1599 C   0  0  0  0  0  0  0  0  0  0  0  0
   -5.6105    4.9207    5.5094 C   0  0  0  0  0  0  0  0  0  0  0  0
   -5.5650    6.2382    5.9253 C   0  0  0  0  0  0  0  0  0  0  0  0
   -5.6929    2.9431    3.6296 S   0  0  0  0  0  0  0  0  0  0  0  0
   -6.2720    2.9446    2.3320 O   0  0  0  0  0  0  0  0  0  0  0  0
   -6.2387    2.1938    4.7066 O   0  0  0  0  0  0  0  0  0  0  0  0
   -4.0258    2.4061    3.4365 C   0  0  0  0  0  0  0  0  0  0  0  0
   -3.3559    1.8346    4.5021 C   0  0  0  0  0  0  0  0  0  0  0  0
   -2.0481    1.4134    4.3506 C   0  0  0  0  0  0  0  0  0  0  0  0
   -1.4104    1.5628    3.1332 C   0  0  0  0  0  0  0  0  0  0  0  0
   -2.0788    2.1386    2.0690 C   0  0  0  0  0  0  0  0  0  0  0  0
   -3.3880    2.5560    2.2193 C   0  0  0  0  0  0  0  0  0  0  0  0
    0.0153    1.1034    2.9681 C   0  0  0  0  0  0  0  0  0  0  0  0
    0.0304   -0.2936    2.5272 N   0  0  0  0  0  0  0  0  0  0  0  0
    0.0531   -1.3915    3.3722 C   0  0  0  0  0  0  0  0  0  0  0  0
    0.0684   -1.5024    4.7593 C   0  0  0  0  0  0  0  0  0  0  0  0
    0.0912   -2.7496    5.3539 C   0  0  0  0  0  0  0  0  0  0  0  0
    0.0994   -3.9047    4.5717 C   0  0  0  0  0  0  0  0  0  0  0  0
    0.0843   -3.8083    3.1944 C   0  0  0  0  0  0  0  0  0  0  0  0
    0.0609   -2.5532    2.5874 C   0  0  0  0  0  0  0  0  0  0  0  0
    0.0414   -2.1100    1.1807 C   0  0  0  0  0  0  0  0  0  0  0  0
    0.0231   -0.7081    1.2046 C   0  0  0  0  0  0  0  0  0  0  0  0
    0.0021   -0.0041    0.0020 C   0  0  0  0  0  0  0  0  0  0  0  0
   -0.0058   -0.6919   -1.2024 C   0  0  0  0  0  0  0  0  0  0  0  0
    0.0170   -2.0814   -1.2188 C   0  0  0  0  0  0  0  0  0  0  0  0
    0.0382   -2.7892   -0.0364 C   0  0  0  0  0  0  0  0  0  0  0  0
   -0.0315   -0.0023   -2.3745 O   0  0  0  0  0  0  0  0  0  0  0  0
   -0.0164    1.3567    0.0095 O   0  0  0  0  0  0  0  0  0  0  0  0
    0.1218   -5.1281    5.1669 O   0  0  0  0  0  0  0  0  0  0  0  0
    0.1061   -2.8515    6.7099 O   0  0  0  0  0  0  0  0  0  0  0  0
   -5.5284    8.2873    5.3170 H   0  0  0  0  0  0  0  0  0  0  0  0
   -5.5931    7.7566    2.9134 H   0  0  0  0  0  0  0  0  0  0  0  0
   -5.6651    5.4095    2.1723 H   0  0  0  0  0  0  0  0  0  0  0  0
   -5.6183    4.1242    6.2387 H   0  0  0  0  0  0  0  0  0  0  0  0
   -5.5370    6.4710    6.9796 H   0  0  0  0  0  0  0  0  0  0  0  0
   -3.8542    1.7176    5.4531 H   0  0  0  0  0  0  0  0  0  0  0  0
   -1.5246    0.9672    5.1832 H   0  0  0  0  0  0  0  0  0  0  0  0
   -1.5791    2.2594    1.1192 H   0  0  0  0  0  0  0  0  0  0  0  0
   -3.9115    3.0021    1.3866 H   0  0  0  0  0  0  0  0  0  0  0  0
    0.5374    1.1894    3.9210 H   0  0  0  0  0  0  0  0  0  0  0  0
    0.5133    1.7247    2.2236 H   0  0  0  0  0  0  0  0  0  0  0  0
    0.0622   -0.6128    5.3717 H   0  0  0  0  0  0  0  0  0  0  0  0
    0.0911   -4.7026    2.5889 H   0  0  0  0  0  0  0  0  0  0  0  0
    0.0142   -2.6085   -2.1614 H   0  0  0  0  0  0  0  0  0  0  0  0
    0.0521   -3.8689   -0.0529 H   0  0  0  0  0  0  0  0  0  0  0  0
    0.8443    0.2088   -2.7259 H   0  0  0  0  0  0  0  0  0  0  0  0
    0.8616    1.7620    0.0033 H   0  0  0  0  0  0  0  0  0  0  0  0
   -0.7550   -5.4938    5.3475 H   0  0  0  0  0  0  0  0  0  0  0  0
   -0.7729   -2.8929    7.1109 H   0  0  0  0  0  0  0  0  0  0  0  0
  1  6  2  0  0  0  0
  1  2  1  0  0  0  0
  1 34  1  0  0  0  0
  2  3  2  0  0  0  0
  2 35  1  0  0  0  0
  3  4  1  0  0  0  0
  3 36  1  0  0  0  0
  4  5  2  0  0  0  0
  4  7  1  0  0  0  0
  5  6  1  0  0  0  0
  5 37  1  0  0  0  0
  6 38  1  0  0  0  0
  7  8  2  0  0  0  0
  7  9  2  0  0  0  0
  7 10  1  0  0  0  0
 10 15  2  0  0  0  0
 10 11  1  0  0  0  0
 11 12  2  0  0  0  0
 11 39  1  0  0  0  0
 12 13  1  0  0  0  0
 12 40  1  0  0  0  0
 13 14  2  0  0  0  0
 13 16  1  0  0  0  0
 14 15  1  0  0  0  0
 14 41  1  0  0  0  0
 15 42  1  0  0  0  0
 16 17  1  0  0  0  0
 16 43  1  0  0  0  0
 16 44  1  0  0  0  0
 17 25  1  0  0  0  0
 17 18  1  0  0  0  0
 18 23  2  0  0  0  0
 18 19  1  0  0  0  0
 19 20  2  0  0  0  0
 19 45  1  0  0  0  0
 20 21  1  0  0  0  0
 20 33  1  0  0  0  0
 21 22  2  0  0  0  0
 21 32  1  0  0  0  0
 22 23  1  0  0  0  0
 22 46  1  0  0  0  0
 23 24  1  0  0  0  0
 24 29  2  0  0  0  0
 24 25  1  0  0  0  0
 25 26  2  0  0  0  0
 26 27  1  0  0  0  0
 26 31  1  0  0  0  0
 27 28  2  0  0  0  0
 27 30  1  0  0  0  0
 28 29  1  0  0  0  0
 28 47  1  0  0  0  0
 29 48  1  0  0  0  0
 30 49  1  0  0  0  0
 31 50  1  0  0  0  0
 32 51  1  0  0  0  0
 33 52  1  0  0  0  0
M  END
$$$$
ZINC01916195
  -OEChem-08230709403D

 45 48  0     0  0  0  0  0  0999 V2000
   -5.3951   -7.7789   -3.1211 C   0  0  0  0  0  0  0  0  0  0  0  0
   -4.7632   -6.7760   -3.8323 C   0  0  0  0  0  0  0  0  0  0  0  0
   -3.4617   -6.4258   -3.5254 C   0  0  0  0  0  0  0  0  0  0  0  0
   -2.7919   -7.0788   -2.5076 C   0  0  0  0  0  0  0  0  0  0  0  0
   -3.4218   -8.0856   -1.8002 C   0  0  0  0  0  0  0  0  0  0  0  0
   -4.7252   -8.4323   -2.1037 C   0  0  0  0  0  0  0  0  0  0  0  0
   -1.3728   -6.6974   -2.1734 C   0  0  0  0  0  0  0  0  0  0  0  0
   -1.3775   -5.5925   -1.1150 C   0  0  0  0  0  0  0  0  0  0  0  0
    0.0632   -5.2052   -0.7756 C   0  0  0  0  0  0  0  0  0  0  0  0
    0.0587   -4.1473    0.2378 N   0  0  0  0  0  0  0  0  0  0  0  0
    0.0387   -2.7887   -0.0342 C   0  0  0  0  0  0  0  0  0  0  0  0
    0.0180   -2.0756   -1.2290 C   0  0  0  0  0  0  0  0  0  0  0  0
   -0.0058   -0.6941   -1.2104 C   0  0  0  0  0  0  0  0  0  0  0  0
    0.0021   -0.0041    0.0020 C   0  0  0  0  0  0  0  0  0  0  0  0
    0.0228   -0.6998    1.1945 C   0  0  0  0  0  0  0  0  0  0  0  0
    0.0413   -2.0940    1.1835 C   0  0  0  0  0  0  0  0  0  0  0  0
    0.0643   -3.1139    2.2489 C   0  0  0  0  0  0  0  0  0  0  0  0
    0.0742   -4.3606    1.6072 C   0  0  0  0  0  0  0  0  0  0  0  0
    0.0963   -5.5241    2.3742 C   0  0  0  0  0  0  0  0  0  0  0  0
    0.1082   -5.4401    3.7586 C   0  0  0  0  0  0  0  0  0  0  0  0
    0.0987   -4.2011    4.3880 C   0  0  0  0  0  0  0  0  0  0  0  0
    0.0764   -3.0432    3.6409 C   0  0  0  0  0  0  0  0  0  0  0  0
    0.1297   -6.5773    4.5046 O   0  0  0  0  0  0  0  0  0  0  0  0
    0.1067   -6.7412    1.7654 O   0  0  0  0  0  0  0  0  0  0  0  0
   -0.0164    1.3565    0.0095 O   0  0  0  0  0  0  0  0  0  0  0  0
   -0.0320   -0.0028   -2.3812 O   0  0  0  0  0  0  0  0  0  0  0  0
   -6.4121   -8.0523   -3.3607 H   0  0  0  0  0  0  0  0  0  0  0  0
   -5.2865   -6.2658   -4.6274 H   0  0  0  0  0  0  0  0  0  0  0  0
   -2.9680   -5.6423   -4.0810 H   0  0  0  0  0  0  0  0  0  0  0  0
   -2.8970   -8.5988   -1.0080 H   0  0  0  0  0  0  0  0  0  0  0  0
   -5.2188   -9.2161   -1.5483 H   0  0  0  0  0  0  0  0  0  0  0  0
   -0.8720   -6.3374   -3.0721 H   0  0  0  0  0  0  0  0  0  0  0  0
   -0.8438   -7.5685   -1.7868 H   0  0  0  0  0  0  0  0  0  0  0  0
   -1.8783   -5.9524   -0.2162 H   0  0  0  0  0  0  0  0  0  0  0  0
   -1.9065   -4.7214   -1.5015 H   0  0  0  0  0  0  0  0  0  0  0  0
    0.5640   -4.8453   -1.6744 H   0  0  0  0  0  0  0  0  0  0  0  0
    0.5922   -6.0763   -0.3891 H   0  0  0  0  0  0  0  0  0  0  0  0
    0.0159   -2.6025   -2.1717 H   0  0  0  0  0  0  0  0  0  0  0  0
    0.0252   -0.1655    2.1331 H   0  0  0  0  0  0  0  0  0  0  0  0
    0.1084   -4.1454    5.4666 H   0  0  0  0  0  0  0  0  0  0  0  0
    0.0691   -2.0821    4.1334 H   0  0  0  0  0  0  0  0  0  0  0  0
    1.0192   -6.8948    4.7121 H   0  0  0  0  0  0  0  0  0  0  0  0
    0.9929   -7.0814    1.5815 H   0  0  0  0  0  0  0  0  0  0  0  0
    0.8616    1.7618    0.0033 H   0  0  0  0  0  0  0  0  0  0  0  0
    0.8436    0.2092   -2.7325 H   0  0  0  0  0  0  0  0  0  0  0  0
  1  6  2  0  0  0  0
  1  2  1  0  0  0  0
  1 27  1  0  0  0  0
  2  3  2  0  0  0  0
  2 28  1  0  0  0  0
  3  4  1  0  0  0  0
  3 29  1  0  0  0  0
  4  5  2  0  0  0  0
  4  7  1  0  0  0  0
  5  6  1  0  0  0  0
  5 30  1  0  0  0  0
  6 31  1  0  0  0  0
  7  8  1  0  0  0  0
  7 32  1  0  0  0  0
  7 33  1  0  0  0  0
  8  9  1  0  0  0  0
  8 34  1  0  0  0  0
  8 35  1  0  0  0  0
  9 10  1  0  0  0  0
  9 36  1  0  0  0  0
  9 37  1  0  0  0  0
 10 18  1  0  0  0  0
 10 11  1  0  0  0  0
 11 16  2  0  0  0  0
 11 12  1  0  0  0  0
 12 13  2  0  0  0  0
 12 38  1  0  0  0  0
 13 14  1  0  0  0  0
 13 26  1  0  0  0  0
 14 15  2  0  0  0  0
 14 25  1  0  0  0  0
 15 16  1  0  0  0  0
 15 39  1  0  0  0  0
 16 17  1  0  0  0  0
 17 22  2  0  0  0  0
 17 18  1  0  0  0  0
 18 19  2  0  0  0  0
 19 20  1  0  0  0  0
 19 24  1  0  0  0  0
 20 21  2  0  0  0  0
 20 23  1  0  0  0  0
 21 22  1  0  0  0  0
 21 40  1  0  0  0  0
 22 41  1  0  0  0  0
 23 42  1  0  0  0  0
 24 43  1  0  0  0  0
 25 44  1  0  0  0  0
 26 45  1  0  0  0  0
M  END
$$$$
ZINC02006382
  -OEChem-08230709403D

 57 59  0     0  0  0  0  0  0999 V2000
    2.2640   10.7426   -2.2181 C   0  0  0  0  0  0  0  0  0  0  0  0
    3.3734   10.5555   -1.1812 C   0  0  0  0  0  0  0  0  0  0  0  0
    2.5236   12.3752    0.1712 C   0  0  0  0  0  0  0  0  0  0  0  0
    3.8003   13.2176    0.1344 C   0  0  0  0  0  0  0  0  0  0  0  0
    1.7357   10.1168    0.5475 C   0  0  0  0  0  0  0  0  0  0  0  0
    2.2033    8.6739    0.7483 C   0  0  0  0  0  0  0  0  0  0  0  0
    1.0150    7.8066    1.1686 C   0  0  0  0  0  0  0  0  0  0  0  0
    1.4825    6.3637    1.3694 C   0  0  0  0  0  0  0  0  0  0  0  0
    0.3447    5.5332    1.7719 N   0  0  0  0  0  0  0  0  0  0  0  0
    0.5252    4.1791    2.0130 C   0  0  0  0  0  0  0  0  0  0  0  0
    1.7896    3.6249    1.8689 C   0  0  0  0  0  0  0  0  0  0  0  0
    1.9593    2.2676    2.1129 C   0  0  0  0  0  0  0  0  0  0  0  0
    0.8314    1.5098    2.4984 C   0  0  0  0  0  0  0  0  0  0  0  0
    0.9656    0.1248    2.7558 C   0  0  0  0  0  0  0  0  0  0  0  0
    2.1956   -0.4603    2.6255 C   0  0  0  0  0  0  0  0  0  0  0  0
    3.3447    0.3543    2.2240 C   0  0  0  0  0  0  0  0  0  0  0  0
    4.4422   -0.1611    2.1060 O   0  0  0  0  0  0  0  0  0  0  0  0
    3.1927    1.6715    1.9842 N   0  0  0  0  0  0  0  0  0  0  0  0
    3.9826    2.2202    1.7105 H   0  0  0  0  0  0  0  0  0  0  0  0
    2.3639   -1.9086    2.8885 C   0  0  0  0  0  0  0  0  0  0  0  0
    2.6850   -2.3553    4.1709 C   0  0  0  0  0  0  0  0  0  0  0  0
    2.8348   -3.7072    4.4105 C   0  0  0  0  0  0  0  0  0  0  0  0
    2.6784   -4.6168    3.3802 C   0  0  0  0  0  0  0  0  0  0  0  0
    2.3657   -4.1802    2.1054 C   0  0  0  0  0  0  0  0  0  0  0  0
    2.2075   -2.8315    1.8536 C   0  0  0  0  0  0  0  0  0  0  0  0
    1.8156   -2.2855    0.2529 Cl  0  0  0  0  0  0  0  0  0  0  0  0
    2.8892   -1.2147    5.4636 Cl  0  0  0  0  0  0  0  0  0  0  0  0
   -0.4068    2.1507    2.6249 C   0  0  0  0  0  0  0  0  0  0  0  0
    1.4000   10.1396   -1.9387 H   0  0  0  0  0  0  0  0  0  0  0  0
    1.9764   11.7933   -2.2569 H   0  0  0  0  0  0  0  0  0  0  0  0
    2.6251   10.4283   -3.1973 H   0  0  0  0  0  0  0  0  0  0  0  0
    4.2286   11.1764   -1.4480 H   0  0  0  0  0  0  0  0  0  0  0  0
    3.6771    9.5089   -1.1589 H   0  0  0  0  0  0  0  0  0  0  0  0
    1.9061   12.6133   -0.6949 H   0  0  0  0  0  0  0  0  0  0  0  0
    1.9695   12.5949    1.0839 H   0  0  0  0  0  0  0  0  0  0  0  0
    4.4165   12.9815    1.0020 H   0  0  0  0  0  0  0  0  0  0  0  0
    4.3557   12.9959   -0.7769 H   0  0  0  0  0  0  0  0  0  0  0  0
    3.5382   14.2754    0.1520 H   0  0  0  0  0  0  0  0  0  0  0  0
    0.9716   10.1464   -0.2292 H   0  0  0  0  0  0  0  0  0  0  0  0
    1.3203   10.4973    1.4806 H   0  0  0  0  0  0  0  0  0  0  0  0
    2.9674    8.6443    1.5250 H   0  0  0  0  0  0  0  0  0  0  0  0
    2.6187    8.2934   -0.1848 H   0  0  0  0  0  0  0  0  0  0  0  0
    0.2508    7.8362    0.3919 H   0  0  0  0  0  0  0  0  0  0  0  0
    0.5995    8.1871    2.1017 H   0  0  0  0  0  0  0  0  0  0  0  0
    2.2466    6.3341    2.1462 H   0  0  0  0  0  0  0  0  0  0  0  0
    1.8979    5.9832    0.4363 H   0  0  0  0  0  0  0  0  0  0  0  0
   -0.5349    5.9302    1.8698 H   0  0  0  0  0  0  0  0  0  0  0  0
    2.6274    4.2384    1.5718 H   0  0  0  0  0  0  0  0  0  0  0  0
    0.1087   -0.4626    3.0507 H   0  0  0  0  0  0  0  0  0  0  0  0
    3.0789   -4.0546    5.4036 H   0  0  0  0  0  0  0  0  0  0  0  0
    2.8014   -5.6726    3.5718 H   0  0  0  0  0  0  0  0  0  0  0  0
    2.2446   -4.8956    1.3054 H   0  0  0  0  0  0  0  0  0  0  0  0
   -1.2773    1.5850    2.9229 H   0  0  0  0  0  0  0  0  0  0  0  0
    2.8978   10.9453    0.1629 N   0  3  0  0  0  0  0  0  0  0  0  0
    3.6539   10.7945    0.8409 H   0  0  0  0  0  0  0  0  0  0  0  0
   -0.5897    3.4740    2.3852 N   0  3  0  0  0  0  0  0  0  0  0  0
   -1.5096    3.9208    2.4772 H   0  0  0  0  0  0  0  0  0  0  0  0
  1  2  1  0  0  0  0
  1 29  1  0  0  0  0
  1 30  1  0  0  0  0
  1 31  1  0  0  0  0
  2 32  1  0  0  0  0
  2 33  1  0  0  0  0
  2 54  1  0  0  0  0
  3  4  1  0  0  0  0
  3 34  1  0  0  0  0
  3 35  1  0  0  0  0
  3 54  1  0  0  0  0
  4 36  1  0  0  0  0
  4 37  1  0  0  0  0
  4 38  1  0  0  0  0
  5  6  1  0  0  0  0
  5 39  1  0  0  0  0
  5 40  1  0  0  0  0
  5 54  1  0  0  0  0
  6  7  1  0  0  0  0
  6 41  1  0  0  0  0
  6 42  1  0  0  0  0
  7  8  1  0  0  0  0
  7 43  1  0  0  0  0
  7 44  1  0  0  0  0
  8  9  1  0  0  0  0
  8 45  1  0  0  0  0
  8 46  1  0  0  0  0
  9 10  1  0  0  0  0
  9 47  1  0  0  0  0
 10 11  2  0  0  0  0
 10 56  1  0  0  0  0
 11 12  1  0  0  0  0
 11 48  1  0  0  0  0
 12 18  1  0  0  0  0
 12 13  2  0  0  0  0
 13 14  1  0  0  0  0
 13 28  1  0  0  0  0
 14 15  2  0  0  0  0
 14 49  1  0  0  0  0
 15 16  1  0  0  0  0
 15 20  1  0  0  0  0
 16 17  2  0  0  0  0
 16 18  1  0  0  0  0
 18 19  1  0  0  0  0
 20 25  2  0  0  0  0
 20 21  1  0  0  0  0
 21 22  2  0  0  0  0
 21 27  1  0  0  0  0
 22 23  1  0  0  0  0
 22 50  1  0  0  0  0
 23 24  2  0  0  0  0
 23 51  1  0  0  0  0
 24 25  1  0  0  0  0
 24 52  1  0  0  0  0
 25 26  1  0  0  0  0
 28 53  1  0  0  0  0
 28 56  2  0  0  0  0
 54 55  1  0  0  0  0
 56 57  1  0  0  0  0
M  CHG  2  54   1  56   1
M  END
$$$$
ZINC02006385
  -OEChem-08230709403D

 61 64  0     0  0  0  0  0  0999 V2000
    0.0021   -0.0041    0.0020 C   0  0  0  0  0  0  0  0  0  0  0  0
   -0.0178    1.4608    0.0101 N   0  0  0  0  0  0  0  0  0  0  0  0
   -1.2216    2.1269    0.0194 C   0  0  0  0  0  0  0  0  0  0  0  0
   -2.4255    1.4324    0.0320 C   0  0  0  0  0  0  0  0  0  0  0  0
   -3.6131    2.1500    0.0463 C   0  0  0  0  0  0  0  0  0  0  0  0
   -2.5054    4.1825    0.0466 C   0  0  0  0  0  0  0  0  0  0  0  0
   -1.2621    3.5384    0.0322 C   0  0  0  0  0  0  0  0  0  0  0  0
   -0.0566    4.2794    0.0247 C   0  0  0  0  0  0  0  0  0  0  0  0
    1.1365    3.6096    0.0101 C   0  0  0  0  0  0  0  0  0  0  0  0
    1.1430    2.1450    0.0027 C   0  0  0  0  0  0  0  0  0  0  0  0
    2.2020    1.5430   -0.0099 O   0  0  0  0  0  0  0  0  0  0  0  0
    2.4133    4.3610    0.0015 C   0  0  0  0  0  0  0  0  0  0  0  0
    3.0084    4.7175   -1.2093 C   0  0  0  0  0  0  0  0  0  0  0  0
    4.1956    5.4234   -1.2103 C   0  0  0  0  0  0  0  0  0  0  0  0
    4.8007    5.7666   -0.0147 C   0  0  0  0  0  0  0  0  0  0  0  0
    4.2192    5.4109    1.1890 C   0  0  0  0  0  0  0  0  0  0  0  0
    3.0290    4.7103    1.2040 C   0  0  0  0  0  0  0  0  0  0  0  0
    2.3008    4.2649    2.7157 Cl  0  0  0  0  0  0  0  0  0  0  0  0
    2.2543    4.2815   -2.7109 Cl  0  0  0  0  0  0  0  0  0  0  0  0
   -4.8205    1.4669    0.0541 N   0  0  0  0  0  0  0  0  0  0  0  0
   -4.8333    0.0019    0.0468 C   0  0  0  0  0  0  0  0  0  0  0  0
   -6.2801   -0.4955    0.0578 C   0  0  0  0  0  0  0  0  0  0  0  0
   -6.2935   -2.0254    0.0502 C   0  0  0  0  0  0  0  0  0  0  0  0
   -8.3488   -2.1571    1.3241 C   0  0  0  0  0  0  0  0  0  0  0  0
   -9.8125   -2.6003    1.2639 C   0  0  0  0  0  0  0  0  0  0  0  0
   -9.2073   -4.3940   -0.2444 C   0  0  0  0  0  0  0  0  0  0  0  0
   -7.7436   -3.9508   -0.1842 C   0  0  0  0  0  0  0  0  0  0  0  0
  -11.2627   -4.5257    1.0295 C   0  0  0  0  0  0  0  0  0  0  0  0
    1.0345   -0.3534   -0.0097 H   0  0  0  0  0  0  0  0  0  0  0  0
   -0.4983   -0.3791    0.8948 H   0  0  0  0  0  0  0  0  0  0  0  0
   -0.5153   -0.3696   -0.8850 H   0  0  0  0  0  0  0  0  0  0  0  0
   -2.4366    0.3525    0.0263 H   0  0  0  0  0  0  0  0  0  0  0  0
   -2.5521    5.2614    0.0521 H   0  0  0  0  0  0  0  0  0  0  0  0
   -0.0780    5.3592    0.0300 H   0  0  0  0  0  0  0  0  0  0  0  0
    4.6545    5.7045   -2.1467 H   0  0  0  0  0  0  0  0  0  0  0  0
    5.7314    6.3144   -0.0210 H   0  0  0  0  0  0  0  0  0  0  0  0
    4.6967    5.6818    2.1190 H   0  0  0  0  0  0  0  0  0  0  0  0
   -5.6562    1.9591    0.0644 H   0  0  0  0  0  0  0  0  0  0  0  0
   -4.3310   -0.3613   -0.8498 H   0  0  0  0  0  0  0  0  0  0  0  0
   -4.3143   -0.3703    0.9301 H   0  0  0  0  0  0  0  0  0  0  0  0
   -6.7824   -0.1322    0.9544 H   0  0  0  0  0  0  0  0  0  0  0  0
   -6.7990   -0.1232   -0.8255 H   0  0  0  0  0  0  0  0  0  0  0  0
   -5.7912   -2.3887   -0.8464 H   0  0  0  0  0  0  0  0  0  0  0  0
   -5.7745   -2.3977    0.9335 H   0  0  0  0  0  0  0  0  0  0  0  0
   -7.8490   -2.6640    2.1495 H   0  0  0  0  0  0  0  0  0  0  0  0
   -8.3014   -1.0789    1.4769 H   0  0  0  0  0  0  0  0  0  0  0  0
  -10.3192   -2.0730    0.4556 H   0  0  0  0  0  0  0  0  0  0  0  0
  -10.3012   -2.3709    2.2108 H   0  0  0  0  0  0  0  0  0  0  0  0
   -9.7071   -3.8871   -1.0699 H   0  0  0  0  0  0  0  0  0  0  0  0
   -9.2548   -5.4722   -0.3976 H   0  0  0  0  0  0  0  0  0  0  0  0
   -7.2549   -4.1803   -1.1311 H   0  0  0  0  0  0  0  0  0  0  0  0
   -7.2369   -4.4781    0.6240 H   0  0  0  0  0  0  0  0  0  0  0  0
  -11.2752   -5.6094    0.9131 H   0  0  0  0  0  0  0  0  0  0  0  0
  -11.7323   -4.2564    1.9756 H   0  0  0  0  0  0  0  0  0  0  0  0
  -11.8113   -4.0656    0.2076 H   0  0  0  0  0  0  0  0  0  0  0  0
   -3.6891    3.5189    0.0539 N   0  3  0  0  0  0  0  0  0  0  0  0
   -4.5890    4.0130    0.0644 H   0  0  0  0  0  0  0  0  0  0  0  0
   -7.6969   -2.4905    0.0403 N   0  3  0  0  0  0  0  0  0  0  0  0
   -8.1991   -2.0194   -0.7213 H   0  0  0  0  0  0  0  0  0  0  0  0
   -9.8592   -4.0606    1.0394 N   0  3  0  0  0  0  0  0  0  0  0  0
   -9.3570   -4.5317    1.8010 H   0  0  0  0  0  0  0  0  0  0  0  0
  1  2  1  0  0  0  0
  1 29  1  0  0  0  0
  1 30  1  0  0  0  0
  1 31  1  0  0  0  0
  2 10  1  0  0  0  0
  2  3  1  0  0  0  0
  3  7  2  0  0  0  0
  3  4  1  0  0  0  0
  4  5  2  0  0  0  0
  4 32  1  0  0  0  0
  5 20  1  0  0  0  0
  5 56  1  0  0  0  0
  6  7  1  0  0  0  0
  6 33  1  0  0  0  0
  6 56  2  0  0  0  0
  7  8  1  0  0  0  0
  8  9  2  0  0  0  0
  8 34  1  0  0  0  0
  9 10  1  0  0  0  0
  9 12  1  0  0  0  0
 10 11  2  0  0  0  0
 12 17  2  0  0  0  0
 12 13  1  0  0  0  0
 13 14  2  0  0  0  0
 13 19  1  0  0  0  0
 14 15  1  0  0  0  0
 14 35  1  0  0  0  0
 15 16  2  0  0  0  0
 15 36  1  0  0  0  0
 16 17  1  0  0  0  0
 16 37  1  0  0  0  0
 17 18  1  0  0  0  0
 20 21  1  0  0  0  0
 20 38  1  0  0  0  0
 21 22  1  0  0  0  0
 21 39  1  0  0  0  0
 21 40  1  0  0  0  0
 22 23  1  0  0  0  0
 22 41  1  0  0  0  0
 22 42  1  0  0  0  0
 23 43  1  0  0  0  0
 23 44  1  0  0  0  0
 23 58  1  0  0  0  0
 24 25  1  0  0  0  0
 24 45  1  0  0  0  0
 24 46  1  0  0  0  0
 24 58  1  0  0  0  0
 25 47  1  0  0  0  0
 25 48  1  0  0  0  0
 25 60  1  0  0  0  0
 26 27  1  0  0  0  0
 26 49  1  0  0  0  0
 26 50  1  0  0  0  0
 26 60  1  0  0  0  0
 27 51  1  0  0  0  0
 27 52  1  0  0  0  0
 27 58  1  0  0  0  0
 28 53  1  0  0  0  0
 28 54  1  0  0  0  0
 28 55  1  0  0  0  0
 28 60  1  0  0  0  0
 56 57  1  0  0  0  0
 58 59  1  0  0  0  0
 60 61  1  0  0  0  0
M  CHG  3  56   1  58   1  60   1
M  END
$$$$
ZINC02047503
  -OEChem-08230709403D

 45 48  0     0  0  0  0  0  0999 V2000
    0.0685    1.0902    0.1116 C   0  0  0  0  0  0  0  0  0  0  0  0
   -0.4262    1.5833    1.3993 N   0  0  0  0  0  0  0  0  0  0  0  0
   -0.5386    2.9342    1.6113 C   0  0  0  0  0  0  0  0  0  0  0  0
   -1.0182    3.4258    2.8448 C   0  0  0  0  0  0  0  0  0  0  0  0
   -1.3770    2.5290    3.8769 C   0  0  0  0  0  0  0  0  0  0  0  0
   -1.2566    1.1828    3.6580 C   0  0  0  0  0  0  0  0  0  0  0  0
   -0.7609    0.7061    2.3650 C   0  0  0  0  0  0  0  0  0  0  0  0
   -0.6511   -0.4900    2.1618 O   0  0  0  0  0  0  0  0  0  0  0  0
   -1.6241    0.2171    4.7198 C   0  0  0  0  0  0  0  0  0  0  0  0
   -0.6661   -0.2109    5.6397 C   0  0  0  0  0  0  0  0  0  0  0  0
   -1.0165   -1.1073    6.6304 C   0  0  0  0  0  0  0  0  0  0  0  0
   -2.3111   -1.5889    6.7051 C   0  0  0  0  0  0  0  0  0  0  0  0
   -3.2642   -1.1726    5.7932 C   0  0  0  0  0  0  0  0  0  0  0  0
   -2.9282   -0.2726    4.8008 C   0  0  0  0  0  0  0  0  0  0  0  0
   -4.1255    0.2477    3.6566 Cl  0  0  0  0  0  0  0  0  0  0  0  0
    0.9610    0.3864    5.5428 Cl  0  0  0  0  0  0  0  0  0  0  0  0
   -1.1231    4.8140    3.0188 C   0  0  0  0  0  0  0  0  0  0  0  0
   -0.7739    5.6039    2.0208 N   0  0  0  0  0  0  0  0  0  0  0  0
   -0.3311    5.1056    0.8717 C   0  0  0  0  0  0  0  0  0  0  0  0
   -0.2145    3.8035    0.6608 N   0  0  0  0  0  0  0  0  0  0  0  0
    0.0210    5.9779   -0.1404 N   0  0  0  0  0  0  0  0  0  0  0  0
   -0.1997    7.3500    0.0111 C   0  0  0  0  0  0  0  0  0  0  0  0
   -1.3058    7.8032    0.7190 C   0  0  0  0  0  0  0  0  0  0  0  0
   -1.5179    9.1592    0.8714 C   0  0  0  0  0  0  0  0  0  0  0  0
   -0.6364   10.0658    0.3112 C   0  0  0  0  0  0  0  0  0  0  0  0
    0.4624    9.6181   -0.3988 C   0  0  0  0  0  0  0  0  0  0  0  0
    0.6833    8.2631   -0.5504 C   0  0  0  0  0  0  0  0  0  0  0  0
    1.4197   10.6097   -1.0082 C   0  0  0  0  0  0  0  0  0  0  0  0
    0.9930   10.9310   -2.3336 O   0  0  0  0  0  0  0  0  0  0  0  0
    0.0950    0.0006    0.1256 H   0  0  0  0  0  0  0  0  0  0  0  0
    1.0728    1.4758   -0.0636 H   0  0  0  0  0  0  0  0  0  0  0  0
   -0.5942    1.4272   -0.6855 H   0  0  0  0  0  0  0  0  0  0  0  0
   -1.7410    2.9000    4.8236 H   0  0  0  0  0  0  0  0  0  0  0  0
   -0.2771   -1.4360    7.3457 H   0  0  0  0  0  0  0  0  0  0  0  0
   -2.5787   -2.2934    7.4788 H   0  0  0  0  0  0  0  0  0  0  0  0
   -4.2732   -1.5525    5.8570 H   0  0  0  0  0  0  0  0  0  0  0  0
   -1.4817    5.2275    3.9498 H   0  0  0  0  0  0  0  0  0  0  0  0
    0.4212    5.6382   -0.9561 H   0  0  0  0  0  0  0  0  0  0  0  0
   -1.9968    7.0958    1.1532 H   0  0  0  0  0  0  0  0  0  0  0  0
   -2.3754    9.5121    1.4250 H   0  0  0  0  0  0  0  0  0  0  0  0
   -0.8068   11.1258    0.4283 H   0  0  0  0  0  0  0  0  0  0  0  0
    1.5416    7.9141   -1.1054 H   0  0  0  0  0  0  0  0  0  0  0  0
    1.4384   11.5159   -0.4028 H   0  0  0  0  0  0  0  0  0  0  0  0
    2.4189   10.1755   -1.0434 H   0  0  0  0  0  0  0  0  0  0  0  0
    1.5640   11.5657   -2.7877 H   0  0  0  0  0  0  0  0  0  0  0  0
  1  2  1  0  0  0  0
  1 30  1  0  0  0  0
  1 31  1  0  0  0  0
  1 32  1  0  0  0  0
  2  7  1  0  0  0  0
  2  3  1  0  0  0  0
  3 20  2  0  0  0  0
  3  4  1  0  0  0  0
  4  5  1  0  0  0  0
  4 17  2  0  0  0  0
  5  6  2  0  0  0  0
  5 33  1  0  0  0  0
  6  7  1  0  0  0  0
  6  9  1  0  0  0  0
  7  8  2  0  0  0  0
  9 14  2  0  0  0  0
  9 10  1  0  0  0  0
 10 11  2  0  0  0  0
 10 16  1  0  0  0  0
 11 12  1  0  0  0  0
 11 34  1  0  0  0  0
 12 13  2  0  0  0  0
 12 35  1  0  0  0  0
 13 14  1  0  0  0  0
 13 36  1  0  0  0  0
 14 15  1  0  0  0  0
 17 18  1  0  0  0  0
 17 37  1  0  0  0  0
 18 19  2  0  0  0  0
 19 20  1  0  0  0  0
 19 21  1  0  0  0  0
 21 22  1  0  0  0  0
 21 38  1  0  0  0  0
 22 27  2  0  0  0  0
 22 23  1  0  0  0  0
 23 24  2  0  0  0  0
 23 39  1  0  0  0  0
 24 25  1  0  0  0  0
 24 40  1  0  0  0  0
 25 26  2  0  0  0  0
 25 41  1  0  0  0  0
 26 27  1  0  0  0  0
 26 28  1  0  0  0  0
 27 42  1  0  0  0  0
 28 29  1  0  0  0  0
 28 43  1  0  0  0  0
 28 44  1  0  0  0  0
 29 45  1  0  0  0  0
M  END
$$$$
ZINC03815082
  -OEChem-08230709403D

 38 41  0     0  0  0  0  0  0999 V2000
    1.2158    2.0869   -1.4921 C   0  0  0  0  0  0  0  0  0  0  0  0
    1.1575    3.4234   -1.1473 C   0  0  0  0  0  0  0  0  0  0  0  0
    0.0416    3.9234   -0.4873 C   0  0  0  0  0  0  0  0  0  0  0  0
   -1.0146    3.0777   -0.1750 C   0  0  0  0  0  0  0  0  0  0  0  0
   -0.9541    1.7390   -0.5274 C   0  0  0  0  0  0  0  0  0  0  0  0
    0.1658    1.2440   -1.1815 C   0  0  0  0  0  0  0  0  0  0  0  0
   -1.9885    0.9098   -0.2281 O   0  0  0  0  0  0  0  0  0  0  0  0
   -0.0175    5.2747   -0.1382 N   0  0  0  0  0  0  0  0  0  0  0  0
    1.1572    5.9740    0.1482 C   0  0  0  0  0  0  0  0  0  0  0  0
    1.2675    7.4051    0.4136 C   0  0  0  0  0  0  0  0  0  0  0  0
    2.6325    7.6626    0.6499 C   0  0  0  0  0  0  0  0  0  0  0  0
    3.2836    6.4722    0.5333 N   0  0  0  0  0  0  0  0  0  0  0  0
    4.2684    6.3386    0.6447 H   0  0  0  0  0  0  0  0  0  0  0  0
    2.3597    5.4654    0.2334 N   0  0  0  0  0  0  0  0  0  0  0  0
    3.0092    8.9118    0.9215 N   0  0  0  0  0  0  0  0  0  0  0  0
    2.1249    9.8842    0.9680 C   0  0  0  0  0  0  0  0  0  0  0  0
    0.8362    9.6882    0.7536 N   0  0  0  0  0  0  0  0  0  0  0  0
    0.3624    8.4776    0.4739 C   0  0  0  0  0  0  0  0  0  0  0  0
   -0.9871    8.2793    0.2498 N   0  0  0  0  0  0  0  0  0  0  0  0
   -1.8562    9.3732    0.2043 C   0  0  0  0  0  0  0  0  0  0  0  0
   -1.4131   10.5943   -0.2886 C   0  0  0  0  0  0  0  0  0  0  0  0
   -2.2738   11.6732   -0.3329 C   0  0  0  0  0  0  0  0  0  0  0  0
   -3.5761   11.5399    0.1127 C   0  0  0  0  0  0  0  0  0  0  0  0
   -4.0214   10.3252    0.6038 C   0  0  0  0  0  0  0  0  0  0  0  0
   -3.1659    9.2401    0.6462 C   0  0  0  0  0  0  0  0  0  0  0  0
   -5.6573   10.1622    1.1615 Cl  0  0  0  0  0  0  0  0  0  0  0  0
    2.0839    1.7000   -2.0050 H   0  0  0  0  0  0  0  0  0  0  0  0
    1.9795    4.0801   -1.3912 H   0  0  0  0  0  0  0  0  0  0  0  0
   -1.8832    3.4635    0.3379 H   0  0  0  0  0  0  0  0  0  0  0  0
    0.2145    0.1996   -1.4521 H   0  0  0  0  0  0  0  0  0  0  0  0
   -1.9144    0.4852    0.6375 H   0  0  0  0  0  0  0  0  0  0  0  0
   -0.8743    5.7273   -0.0946 H   0  0  0  0  0  0  0  0  0  0  0  0
    2.4664   10.8842    1.1911 H   0  0  0  0  0  0  0  0  0  0  0  0
   -1.3310    7.3811    0.1240 H   0  0  0  0  0  0  0  0  0  0  0  0
   -0.3961   10.6997   -0.6365 H   0  0  0  0  0  0  0  0  0  0  0  0
   -1.9295   12.6224   -0.7163 H   0  0  0  0  0  0  0  0  0  0  0  0
   -4.2471   12.3854    0.0769 H   0  0  0  0  0  0  0  0  0  0  0  0
   -3.5146    8.2911    1.0258 H   0  0  0  0  0  0  0  0  0  0  0  0
  1  6  2  0  0  0  0
  1  2  1  0  0  0  0
  1 27  1  0  0  0  0
  2  3  2  0  0  0  0
  2 28  1  0  0  0  0
  3  4  1  0  0  0  0
  3  8  1  0  0  0  0
  4  5  2  0  0  0  0
  4 29  1  0  0  0  0
  5  6  1  0  0  0  0
  5  7  1  0  0  0  0
  6 30  1  0  0  0  0
  7 31  1  0  0  0  0
  8  9  1  0  0  0  0
  8 32  1  0  0  0  0
  9 14  2  0  0  0  0
  9 10  1  0  0  0  0
 10 18  2  0  0  0  0
 10 11  1  0  0  0  0
 11 12  1  0  0  0  0
 11 15  2  0  0  0  0
 12 13  1  0  0  0  0
 12 14  1  0  0  0  0
 15 16  1  0  0  0  0
 16 17  2  0  0  0  0
 16 33  1  0  0  0  0
 17 18  1  0  0  0  0
 18 19  1  0  0  0  0
 19 20  1  0  0  0  0
 19 34  1  0  0  0  0
 20 25  2  0  0  0  0
 20 21  1  0  0  0  0
 21 22  2  0  0  0  0
 21 35  1  0  0  0  0
 22 23  1  0  0  0  0
 22 36  1  0  0  0  0
 23 24  2  0  0  0  0
 23 37  1  0  0  0  0
 24 25  1  0  0  0  0
 24 26  1  0  0  0  0
 25 38  1  0  0  0  0
M  END
$$$$
ZINC03815213
  -OEChem-08230709403D

 36 39  0     0  0  0  0  0  0999 V2000
    0.7503    2.6595   -2.2976 C   0  0  0  0  0  0  0  0  0  0  0  0
    0.2968    3.8704   -1.8140 C   0  0  0  0  0  0  0  0  0  0  0  0
    0.3353    4.1324   -0.4453 C   0  0  0  0  0  0  0  0  0  0  0  0
    0.8274    3.1673    0.4309 C   0  0  0  0  0  0  0  0  0  0  0  0
    1.2754    1.9534   -0.0627 C   0  0  0  0  0  0  0  0  0  0  0  0
    1.2335    1.7005   -1.4273 C   0  0  0  0  0  0  0  0  0  0  0  0
    1.7556    1.0093    0.7887 O   0  0  0  0  0  0  0  0  0  0  0  0
   -0.1463    5.4340    0.0764 C   0  0  0  0  0  0  0  0  0  0  0  0
   -1.3840    6.1147   -0.3029 C   0  0  0  0  0  0  0  0  0  0  0  0
   -1.4257    7.3092    0.4407 C   0  0  0  0  0  0  0  0  0  0  0  0
   -0.2978    7.3387    1.2058 N   0  0  0  0  0  0  0  0  0  0  0  0
   -0.0483    8.0714    1.8390 H   0  0  0  0  0  0  0  0  0  0  0  0
    0.4564    6.1849    0.9676 N   0  0  0  0  0  0  0  0  0  0  0  0
   -2.4666    8.1257    0.2798 N   0  0  0  0  0  0  0  0  0  0  0  0
   -3.4350    7.8218   -0.5564 C   0  0  0  0  0  0  0  0  0  0  0  0
   -3.4367    6.7125   -1.2737 N   0  0  0  0  0  0  0  0  0  0  0  0
   -2.4421    5.8347   -1.1830 C   0  0  0  0  0  0  0  0  0  0  0  0
   -2.4491    4.6756   -1.9366 N   0  0  0  0  0  0  0  0  0  0  0  0
   -3.4446    4.4720   -2.8965 C   0  0  0  0  0  0  0  0  0  0  0  0
   -3.9019    3.1875   -3.1635 C   0  0  0  0  0  0  0  0  0  0  0  0
   -4.8858    2.9892   -4.1119 C   0  0  0  0  0  0  0  0  0  0  0  0
   -5.4164    4.0673   -4.7963 C   0  0  0  0  0  0  0  0  0  0  0  0
   -4.9639    5.3483   -4.5329 C   0  0  0  0  0  0  0  0  0  0  0  0
   -3.9825    5.5538   -3.5811 C   0  0  0  0  0  0  0  0  0  0  0  0
   -5.6337    6.6989   -5.3936 Cl  0  0  0  0  0  0  0  0  0  0  0  0
    0.7241    2.4595   -3.3586 H   0  0  0  0  0  0  0  0  0  0  0  0
   -0.0843    4.6159   -2.4962 H   0  0  0  0  0  0  0  0  0  0  0  0
    0.8598    3.3654    1.4921 H   0  0  0  0  0  0  0  0  0  0  0  0
    1.5836    0.7534   -1.8103 H   0  0  0  0  0  0  0  0  0  0  0  0
    2.7074    1.0710    0.9481 H   0  0  0  0  0  0  0  0  0  0  0  0
   -4.2631    8.5071   -0.6608 H   0  0  0  0  0  0  0  0  0  0  0  0
   -1.7632    4.0036   -1.7992 H   0  0  0  0  0  0  0  0  0  0  0  0
   -3.4880    2.3447   -2.6299 H   0  0  0  0  0  0  0  0  0  0  0  0
   -5.2416    1.9908   -4.3192 H   0  0  0  0  0  0  0  0  0  0  0  0
   -6.1858    3.9094   -5.5375 H   0  0  0  0  0  0  0  0  0  0  0  0
   -3.6321    6.5539   -3.3730 H   0  0  0  0  0  0  0  0  0  0  0  0
  1  6  2  0  0  0  0
  1  2  1  0  0  0  0
  1 26  1  0  0  0  0
  2  3  2  0  0  0  0
  2 27  1  0  0  0  0
  3  4  1  0  0  0  0
  3  8  1  0  0  0  0
  4  5  2  0  0  0  0
  4 28  1  0  0  0  0
  5  6  1  0  0  0  0
  5  7  1  0  0  0  0
  6 29  1  0  0  0  0
  7 30  1  0  0  0  0
  8 13  2  0  0  0  0
  8  9  1  0  0  0  0
  9 17  2  0  0  0  0
  9 10  1  0  0  0  0
 10 11  1  0  0  0  0
 10 14  2  0  0  0  0
 11 12  1  0  0  0  0
 11 13  1  0  0  0  0
 14 15  1  0  0  0  0
 15 16  2  0  0  0  0
 15 31  1  0  0  0  0
 16 17  1  0  0  0  0
 17 18  1  0  0  0  0
 18 19  1  0  0  0  0
 18 32  1  0  0  0  0
 19 24  2  0  0  0  0
 19 20  1  0  0  0  0
 20 21  2  0  0  0  0
 20 33  1  0  0  0  0
 21 22  1  0  0  0  0
 21 34  1  0  0  0  0
 22 23  2  0  0  0  0
 22 35  1  0  0  0  0
 23 24  1  0  0  0  0
 23 25  1  0  0  0  0
 24 36  1  0  0  0  0
M  END
$$$$
ZINC03815223
  -OEChem-08230709403D

 45 48  0     0  0  0  0  0  0999 V2000
   -3.8390    7.9998    7.4838 C   0  0  0  0  0  0  0  0  0  0  0  0
   -3.2868    8.9285    6.4944 N   0  0  0  0  0  0  0  0  0  0  0  0
   -2.7444    8.4396    5.3328 C   0  0  0  0  0  0  0  0  0  0  0  0
   -2.2079    9.3208    4.3691 C   0  0  0  0  0  0  0  0  0  0  0  0
   -2.2258   10.7164    4.5933 C   0  0  0  0  0  0  0  0  0  0  0  0
   -2.7695   11.1950    5.7550 C   0  0  0  0  0  0  0  0  0  0  0  0
   -3.3170   10.2535    6.7341 C   0  0  0  0  0  0  0  0  0  0  0  0
   -3.8026   10.6709    7.7704 O   0  0  0  0  0  0  0  0  0  0  0  0
   -2.8033   12.6524    6.0196 C   0  0  0  0  0  0  0  0  0  0  0  0
   -1.7424   13.2687    6.6843 C   0  0  0  0  0  0  0  0  0  0  0  0
   -1.7781   14.6284    6.9240 C   0  0  0  0  0  0  0  0  0  0  0  0
   -2.8671   15.3773    6.5156 C   0  0  0  0  0  0  0  0  0  0  0  0
   -3.9242   14.7718    5.8605 C   0  0  0  0  0  0  0  0  0  0  0  0
   -3.8988   13.4137    5.6103 C   0  0  0  0  0  0  0  0  0  0  0  0
   -5.2270   12.6554    4.7891 Cl  0  0  0  0  0  0  0  0  0  0  0  0
   -0.3781   12.3293    7.2039 Cl  0  0  0  0  0  0  0  0  0  0  0  0
   -1.6623    8.7799    3.1952 C   0  0  0  0  0  0  0  0  0  0  0  0
   -1.6678    7.4690    3.0417 N   0  0  0  0  0  0  0  0  0  0  0  0
   -2.1863    6.6702    3.9680 C   0  0  0  0  0  0  0  0  0  0  0  0
   -2.7120    7.1338    5.0914 N   0  0  0  0  0  0  0  0  0  0  0  0
   -2.1714    5.3052    3.7538 N   0  0  0  0  0  0  0  0  0  0  0  0
   -1.7307    4.7946    2.5293 C   0  0  0  0  0  0  0  0  0  0  0  0
   -1.9630    5.5024    1.3562 C   0  0  0  0  0  0  0  0  0  0  0  0
   -1.5272    4.9980    0.1466 C   0  0  0  0  0  0  0  0  0  0  0  0
   -0.8546    3.7914    0.0999 C   0  0  0  0  0  0  0  0  0  0  0  0
   -0.6244    3.0776    1.2675 C   0  0  0  0  0  0  0  0  0  0  0  0
   -1.0602    3.5803    2.4836 C   0  0  0  0  0  0  0  0  0  0  0  0
    0.0329    1.8891    1.2194 O   0  0  0  0  0  0  0  0  0  0  0  0
    0.4531    1.4318   -0.0676 C   0  0  0  0  0  0  0  0  0  0  0  0
   -3.0568    7.7078    8.1844 H   0  0  0  0  0  0  0  0  0  0  0  0
   -4.6495    8.4866    8.0263 H   0  0  0  0  0  0  0  0  0  0  0  0
   -4.2218    7.1141    6.9767 H   0  0  0  0  0  0  0  0  0  0  0  0
   -1.8168   11.3948    3.8592 H   0  0  0  0  0  0  0  0  0  0  0  0
   -0.9558   15.1074    7.4347 H   0  0  0  0  0  0  0  0  0  0  0  0
   -2.8922   16.4395    6.7094 H   0  0  0  0  0  0  0  0  0  0  0  0
   -4.7715   15.3621    5.5443 H   0  0  0  0  0  0  0  0  0  0  0  0
   -1.2424    9.4223    2.4353 H   0  0  0  0  0  0  0  0  0  0  0  0
   -2.4666    4.7013    4.4530 H   0  0  0  0  0  0  0  0  0  0  0  0
   -2.4850    6.4473    1.3903 H   0  0  0  0  0  0  0  0  0  0  0  0
   -1.7083    5.5496   -0.7641 H   0  0  0  0  0  0  0  0  0  0  0  0
   -0.5111    3.4017   -0.8469 H   0  0  0  0  0  0  0  0  0  0  0  0
   -0.8779    3.0284    3.3938 H   0  0  0  0  0  0  0  0  0  0  0  0
    0.9638    0.4744    0.0360 H   0  0  0  0  0  0  0  0  0  0  0  0
    1.1335    2.1608   -0.5079 H   0  0  0  0  0  0  0  0  0  0  0  0
   -0.4173    1.3114   -0.7124 H   0  0  0  0  0  0  0  0  0  0  0  0
  1  2  1  0  0  0  0
  1 30  1  0  0  0  0
  1 31  1  0  0  0  0
  1 32  1  0  0  0  0
  2  7  1  0  0  0  0
  2  3  1  0  0  0  0
  3 20  2  0  0  0  0
  3  4  1  0  0  0  0
  4  5  1  0  0  0  0
  4 17  2  0  0  0  0
  5  6  2  0  0  0  0
  5 33  1  0  0  0  0
  6  7  1  0  0  0  0
  6  9  1  0  0  0  0
  7  8  2  0  0  0  0
  9 14  2  0  0  0  0
  9 10  1  0  0  0  0
 10 11  2  0  0  0  0
 10 16  1  0  0  0  0
 11 12  1  0  0  0  0
 11 34  1  0  0  0  0
 12 13  2  0  0  0  0
 12 35  1  0  0  0  0
 13 14  1  0  0  0  0
 13 36  1  0  0  0  0
 14 15  1  0  0  0  0
 17 18  1  0  0  0  0
 17 37  1  0  0  0  0
 18 19  2  0  0  0  0
 19 20  1  0  0  0  0
 19 21  1  0  0  0  0
 21 22  1  0  0  0  0
 21 38  1  0  0  0  0
 22 27  2  0  0  0  0
 22 23  1  0  0  0  0
 23 24  2  0  0  0  0
 23 39  1  0  0  0  0
 24 25  1  0  0  0  0
 24 40  1  0  0  0  0
 25 26  2  0  0  0  0
 25 41  1  0  0  0  0
 26 27  1  0  0  0  0
 26 28  1  0  0  0  0
 27 42  1  0  0  0  0
 28 29  1  0  0  0  0
 29 43  1  0  0  0  0
 29 44  1  0  0  0  0
 29 45  1  0  0  0  0
M  END
$$$$
ZINC03815240
  -OEChem-08230709403D

 63 66  0     0  0  0  0  0  0999 V2000
    4.3966   -4.7837   -2.5468 C   0  0  0  0  0  0  0  0  0  0  0  0
    2.8964   -4.6021   -2.7861 C   0  0  0  0  0  0  0  0  0  0  0  0
    2.4461   -6.8910   -2.1372 C   0  0  0  0  0  0  0  0  0  0  0  0
    1.8425   -7.2999   -3.4823 C   0  0  0  0  0  0  0  0  0  0  0  0
    2.4154   -5.1324   -0.4731 C   0  0  0  0  0  0  0  0  0  0  0  0
    1.8626   -3.7372   -0.1755 C   0  0  0  0  0  0  0  0  0  0  0  0
    0.4386   -3.7538   -0.2937 O   0  0  0  0  0  0  0  0  0  0  0  0
   -0.2140   -2.5840   -0.0593 C   0  0  0  0  0  0  0  0  0  0  0  0
   -1.5967   -2.5300   -0.1569 C   0  0  0  0  0  0  0  0  0  0  0  0
   -2.2601   -1.3423    0.0800 C   0  0  0  0  0  0  0  0  0  0  0  0
   -1.5427   -0.2019    0.4166 C   0  0  0  0  0  0  0  0  0  0  0  0
   -0.1586   -0.2569    0.5145 C   0  0  0  0  0  0  0  0  0  0  0  0
    0.5033   -1.4453    0.2768 C   0  0  0  0  0  0  0  0  0  0  0  0
   -2.2146    1.0029    0.6565 N   0  0  0  0  0  0  0  0  0  0  0  0
   -3.4618    0.9918    1.2505 C   0  0  0  0  0  0  0  0  0  0  0  0
   -3.9572   -0.1650    1.6772 N   0  0  0  0  0  0  0  0  0  0  0  0
   -5.1437   -0.2299    2.2512 C   0  0  0  0  0  0  0  0  0  0  0  0
   -5.8809    0.9543    2.4052 C   0  0  0  0  0  0  0  0  0  0  0  0
   -7.1573    0.9487    3.0126 C   0  0  0  0  0  0  0  0  0  0  0  0
   -7.8369    2.1304    3.1401 C   0  0  0  0  0  0  0  0  0  0  0  0
   -7.2276    3.3671    2.6461 C   0  0  0  0  0  0  0  0  0  0  0  0
   -7.8250    4.4230    2.7559 O   0  0  0  0  0  0  0  0  0  0  0  0
   -6.0096    3.3430    2.0714 N   0  0  0  0  0  0  0  0  0  0  0  0
   -5.3213    2.1634    1.9394 C   0  0  0  0  0  0  0  0  0  0  0  0
   -4.1173    2.1350    1.3785 N   0  0  0  0  0  0  0  0  0  0  0  0
   -5.4137    4.5888    1.5828 C   0  0  0  0  0  0  0  0  0  0  0  0
   -9.1768    2.1577    3.7717 C   0  0  0  0  0  0  0  0  0  0  0  0
  -10.3226    1.9980    2.9915 C   0  0  0  0  0  0  0  0  0  0  0  0
  -11.5685    2.0201    3.5872 C   0  0  0  0  0  0  0  0  0  0  0  0
  -11.6824    2.2097    4.9527 C   0  0  0  0  0  0  0  0  0  0  0  0
  -10.5507    2.3740    5.7310 C   0  0  0  0  0  0  0  0  0  0  0  0
   -9.2987    2.3491    5.1486 C   0  0  0  0  0  0  0  0  0  0  0  0
   -7.8797    2.5560    6.1271 Cl  0  0  0  0  0  0  0  0  0  0  0  0
  -10.1822    1.7665    1.2768 Cl  0  0  0  0  0  0  0  0  0  0  0  0
    4.9531   -4.1230   -3.2115 H   0  0  0  0  0  0  0  0  0  0  0  0
    4.6315   -4.5389   -1.5110 H   0  0  0  0  0  0  0  0  0  0  0  0
    4.6739   -5.8185   -2.7475 H   0  0  0  0  0  0  0  0  0  0  0  0
    2.6589   -4.8621   -3.8177 H   0  0  0  0  0  0  0  0  0  0  0  0
    2.6219   -3.5637   -2.6008 H   0  0  0  0  0  0  0  0  0  0  0  0
    3.5263   -7.0339   -2.1651 H   0  0  0  0  0  0  0  0  0  0  0  0
    2.0186   -7.5058   -1.3452 H   0  0  0  0  0  0  0  0  0  0  0  0
    2.0860   -8.3423   -3.6879 H   0  0  0  0  0  0  0  0  0  0  0  0
    0.7598   -7.1800   -3.4463 H   0  0  0  0  0  0  0  0  0  0  0  0
    2.2519   -6.6689   -4.2712 H   0  0  0  0  0  0  0  0  0  0  0  0
    3.4910   -5.1423   -0.2968 H   0  0  0  0  0  0  0  0  0  0  0  0
    1.9336   -5.8608    0.1791 H   0  0  0  0  0  0  0  0  0  0  0  0
    2.2779   -3.0226   -0.8861 H   0  0  0  0  0  0  0  0  0  0  0  0
    2.1397   -3.4450    0.8374 H   0  0  0  0  0  0  0  0  0  0  0  0
   -2.1544   -3.4170   -0.4187 H   0  0  0  0  0  0  0  0  0  0  0  0
   -3.3362   -1.2993   -0.0007 H   0  0  0  0  0  0  0  0  0  0  0  0
    0.4000    0.6295    0.7766 H   0  0  0  0  0  0  0  0  0  0  0  0
    1.5798   -1.4882    0.3529 H   0  0  0  0  0  0  0  0  0  0  0  0
   -1.8044    1.8453    0.4058 H   0  0  0  0  0  0  0  0  0  0  0  0
   -5.5388   -1.1742    2.5955 H   0  0  0  0  0  0  0  0  0  0  0  0
   -7.5900    0.0261    3.3703 H   0  0  0  0  0  0  0  0  0  0  0  0
   -5.7018    4.7463    0.5434 H   0  0  0  0  0  0  0  0  0  0  0  0
   -5.7679    5.4230    2.1883 H   0  0  0  0  0  0  0  0  0  0  0  0
   -4.3278    4.5242    1.6530 H   0  0  0  0  0  0  0  0  0  0  0  0
  -12.4560    1.8924    2.9851 H   0  0  0  0  0  0  0  0  0  0  0  0
  -12.6591    2.2300    5.4131 H   0  0  0  0  0  0  0  0  0  0  0  0
  -10.6465    2.5224    6.7965 H   0  0  0  0  0  0  0  0  0  0  0  0
    2.1179   -5.4728   -1.8803 N   0  3  0  0  0  0  0  0  0  0  0  0
    1.1169   -5.3253   -2.0547 H   0  0  0  0  0  0  0  0  0  0  0  0
  1  2  1  0  0  0  0
  1 35  1  0  0  0  0
  1 36  1  0  0  0  0
  1 37  1  0  0  0  0
  2 38  1  0  0  0  0
  2 39  1  0  0  0  0
  2 62  1  0  0  0  0
  3  4  1  0  0  0  0
  3 40  1  0  0  0  0
  3 41  1  0  0  0  0
  3 62  1  0  0  0  0
  4 42  1  0  0  0  0
  4 43  1  0  0  0  0
  4 44  1  0  0  0  0
  5  6  1  0  0  0  0
  5 45  1  0  0  0  0
  5 46  1  0  0  0  0
  5 62  1  0  0  0  0
  6  7  1  0  0  0  0
  6 47  1  0  0  0  0
  6 48  1  0  0  0  0
  7  8  1  0  0  0  0
  8 13  2  0  0  0  0
  8  9  1  0  0  0  0
  9 10  2  0  0  0  0
  9 49  1  0  0  0  0
 10 11  1  0  0  0  0
 10 50  1  0  0  0  0
 11 12  2  0  0  0  0
 11 14  1  0  0  0  0
 12 13  1  0  0  0  0
 12 51  1  0  0  0  0
 13 52  1  0  0  0  0
 14 15  1  0  0  0  0
 14 53  1  0  0  0  0
 15 25  2  0  0  0  0
 15 16  1  0  0  0  0
 16 17  2  0  0  0  0
 17 18  1  0  0  0  0
 17 54  1  0  0  0  0
 18 24  2  0  0  0  0
 18 19  1  0  0  0  0
 19 20  2  0  0  0  0
 19 55  1  0  0  0  0
 20 21  1  0  0  0  0
 20 27  1  0  0  0  0
 21 22  2  0  0  0  0
 21 23  1  0  0  0  0
 23 24  1  0  0  0  0
 23 26  1  0  0  0  0
 24 25  1  0  0  0  0
 26 56  1  0  0  0  0
 26 57  1  0  0  0  0
 26 58  1  0  0  0  0
 27 32  2  0  0  0  0
 27 28  1  0  0  0  0
 28 29  2  0  0  0  0
 28 34  1  0  0  0  0
 29 30  1  0  0  0  0
 29 59  1  0  0  0  0
 30 31  2  0  0  0  0
 30 60  1  0  0  0  0
 31 32  1  0  0  0  0
 31 61  1  0  0  0  0
 32 33  1  0  0  0  0
 62 63  1  0  0  0  0
M  CHG  1  62   1
M  END
$$$$
ZINC03815261
  -OEChem-08230709403D

 52 55  0     0  0  0  0  0  0999 V2000
    0.0685    1.0902    0.1116 C   0  0  0  0  0  0  0  0  0  0  0  0
   -0.4262    1.5833    1.3993 N   0  0  0  0  0  0  0  0  0  0  0  0
   -0.5385    2.9342    1.6114 C   0  0  0  0  0  0  0  0  0  0  0  0
   -1.0181    3.4258    2.8448 C   0  0  0  0  0  0  0  0  0  0  0  0
   -1.3769    2.5290    3.8769 C   0  0  0  0  0  0  0  0  0  0  0  0
   -1.2565    1.1829    3.6581 C   0  0  0  0  0  0  0  0  0  0  0  0
   -0.7608    0.7061    2.3651 C   0  0  0  0  0  0  0  0  0  0  0  0
   -0.6510   -0.4900    2.1618 O   0  0  0  0  0  0  0  0  0  0  0  0
   -1.6239    0.2172    4.7199 C   0  0  0  0  0  0  0  0  0  0  0  0
   -0.6659   -0.2109    5.6398 C   0  0  0  0  0  0  0  0  0  0  0  0
   -1.0162   -1.1072    6.6305 C   0  0  0  0  0  0  0  0  0  0  0  0
   -2.3108   -1.5889    6.7053 C   0  0  0  0  0  0  0  0  0  0  0  0
   -3.2639   -1.1726    5.7933 C   0  0  0  0  0  0  0  0  0  0  0  0
   -2.9280   -0.2726    4.8010 C   0  0  0  0  0  0  0  0  0  0  0  0
   -4.1254    0.2477    3.6568 Cl  0  0  0  0  0  0  0  0  0  0  0  0
    0.9613    0.3864    5.5428 Cl  0  0  0  0  0  0  0  0  0  0  0  0
   -1.1230    4.8140    3.0188 C   0  0  0  0  0  0  0  0  0  0  0  0
   -0.7738    5.6039    2.0208 N   0  0  0  0  0  0  0  0  0  0  0  0
   -0.3311    5.1056    0.8717 C   0  0  0  0  0  0  0  0  0  0  0  0
   -0.2145    3.8035    0.6608 N   0  0  0  0  0  0  0  0  0  0  0  0
    0.0210    5.9779   -0.1404 N   0  0  0  0  0  0  0  0  0  0  0  0
   -0.1997    7.3500    0.0111 C   0  0  0  0  0  0  0  0  0  0  0  0
   -1.3057    7.8032    0.7189 C   0  0  0  0  0  0  0  0  0  0  0  0
   -1.5173    9.1593    0.8720 C   0  0  0  0  0  0  0  0  0  0  0  0
   -0.6364   10.0658    0.3112 C   0  0  0  0  0  0  0  0  0  0  0  0
    0.4626    9.6181   -0.3989 C   0  0  0  0  0  0  0  0  0  0  0  0
    0.6834    8.2633   -0.5505 C   0  0  0  0  0  0  0  0  0  0  0  0
   -0.8742   11.5449    0.4746 C   0  0  0  0  0  0  0  0  0  0  0  0
   -1.7351   12.0540   -0.6832 C   0  0  0  0  0  0  0  0  0  0  0  0
   -1.9766   13.5557   -0.5173 C   0  0  0  0  0  0  0  0  0  0  0  0
   -2.8245   14.0572   -1.6577 C   0  0  0  0  0  0  0  0  0  0  0  0
   -3.1974   13.2920   -2.5152 O   0  0  0  0  0  0  0  0  0  0  0  0
    0.0950    0.0006    0.1257 H   0  0  0  0  0  0  0  0  0  0  0  0
    1.0729    1.4758   -0.0636 H   0  0  0  0  0  0  0  0  0  0  0  0
   -0.5942    1.4272   -0.6854 H   0  0  0  0  0  0  0  0  0  0  0  0
   -1.7408    2.9001    4.8236 H   0  0  0  0  0  0  0  0  0  0  0  0
   -0.2768   -1.4359    7.3458 H   0  0  0  0  0  0  0  0  0  0  0  0
   -2.5784   -2.2933    7.4789 H   0  0  0  0  0  0  0  0  0  0  0  0
   -4.2729   -1.5525    5.8572 H   0  0  0  0  0  0  0  0  0  0  0  0
   -1.4816    5.2275    3.9499 H   0  0  0  0  0  0  0  0  0  0  0  0
    0.4212    5.6382   -0.9561 H   0  0  0  0  0  0  0  0  0  0  0  0
   -1.9966    7.0958    1.1531 H   0  0  0  0  0  0  0  0  0  0  0  0
   -2.3744    9.5123    1.4263 H   0  0  0  0  0  0  0  0  0  0  0  0
    1.1490   10.3287   -0.8350 H   0  0  0  0  0  0  0  0  0  0  0  0
    1.5421    7.9142   -1.1049 H   0  0  0  0  0  0  0  0  0  0  0  0
   -1.3888   11.7282    1.4179 H   0  0  0  0  0  0  0  0  0  0  0  0
    0.0816   12.0688    0.4744 H   0  0  0  0  0  0  0  0  0  0  0  0
   -1.2205   11.8708   -1.6265 H   0  0  0  0  0  0  0  0  0  0  0  0
   -2.6909   11.5301   -0.6830 H   0  0  0  0  0  0  0  0  0  0  0  0
   -2.4911   13.7390    0.4260 H   0  0  0  0  0  0  0  0  0  0  0  0
   -1.0207   14.0796   -0.5175 H   0  0  0  0  0  0  0  0  0  0  0  0
   -3.1655   15.3539   -1.7209 O   0  5  0  0  0  0  0  0  0  0  0  0
  1  2  1  0  0  0  0
  1 33  1  0  0  0  0
  1 34  1  0  0  0  0
  1 35  1  0  0  0  0
  2  7  1  0  0  0  0
  2  3  1  0  0  0  0
  3 20  2  0  0  0  0
  3  4  1  0  0  0  0
  4  5  1  0  0  0  0
  4 17  2  0  0  0  0
  5  6  2  0  0  0  0
  5 36  1  0  0  0  0
  6  7  1  0  0  0  0
  6  9  1  0  0  0  0
  7  8  2  0  0  0  0
  9 14  2  0  0  0  0
  9 10  1  0  0  0  0
 10 11  2  0  0  0  0
 10 16  1  0  0  0  0
 11 12  1  0  0  0  0
 11 37  1  0  0  0  0
 12 13  2  0  0  0  0
 12 38  1  0  0  0  0
 13 14  1  0  0  0  0
 13 39  1  0  0  0  0
 14 15  1  0  0  0  0
 17 18  1  0  0  0  0
 17 40  1  0  0  0  0
 18 19  2  0  0  0  0
 19 20  1  0  0  0  0
 19 21  1  0  0  0  0
 21 22  1  0  0  0  0
 21 41  1  0  0  0  0
 22 27  2  0  0  0  0
 22 23  1  0  0  0  0
 23 24  2  0  0  0  0
 23 42  1  0  0  0  0
 24 25  1  0  0  0  0
 24 43  1  0  0  0  0
 25 26  2  0  0  0  0
 25 28  1  0  0  0  0
 26 27  1  0  0  0  0
 26 44  1  0  0  0  0
 27 45  1  0  0  0  0
 28 29  1  0  0  0  0
 28 46  1  0  0  0  0
 28 47  1  0  0  0  0
 29 30  1  0  0  0  0
 29 48  1  0  0  0  0
 29 49  1  0  0  0  0
 30 31  1  0  0  0  0
 30 50  1  0  0  0  0
 30 51  1  0  0  0  0
 31 32  2  0  0  0  0
 31 52  1  0  0  0  0
M  CHG  1  52  -1
M  END
$$$$
ZINC03815288
  -OEChem-08230709403D

 42 45  0     0  0  0  0  0  0999 V2000
    0.8590   10.0323    0.4454 C   0  0  0  0  0  0  0  0  0  0  0  0
    2.1520    9.3435    0.4335 N   0  0  0  0  0  0  0  0  0  0  0  0
    2.1922    7.9764    0.3242 C   0  0  0  0  0  0  0  0  0  0  0  0
    3.4297    7.2973    0.3112 C   0  0  0  0  0  0  0  0  0  0  0  0
    4.6396    8.0215    0.4105 C   0  0  0  0  0  0  0  0  0  0  0  0
    4.5897    9.3854    0.5187 C   0  0  0  0  0  0  0  0  0  0  0  0
    3.2892   10.0588    0.5296 C   0  0  0  0  0  0  0  0  0  0  0  0
    3.2358   11.2720    0.6256 O   0  0  0  0  0  0  0  0  0  0  0  0
    5.8401   10.1731    0.6244 C   0  0  0  0  0  0  0  0  0  0  0  0
    6.3880   10.4532    1.8768 C   0  0  0  0  0  0  0  0  0  0  0  0
    7.5560   11.1847    1.9682 C   0  0  0  0  0  0  0  0  0  0  0  0
    8.1775   11.6472    0.8222 C   0  0  0  0  0  0  0  0  0  0  0  0
    7.6370   11.3770   -0.4221 C   0  0  0  0  0  0  0  0  0  0  0  0
    6.4718   10.6429   -0.5277 C   0  0  0  0  0  0  0  0  0  0  0  0
    5.7945   10.3060   -2.0902 Cl  0  0  0  0  0  0  0  0  0  0  0  0
    5.6064    9.8789    3.3166 Cl  0  0  0  0  0  0  0  0  0  0  0  0
    3.4266    5.8989    0.1984 C   0  0  0  0  0  0  0  0  0  0  0  0
    2.2669    5.2745    0.1139 N   0  0  0  0  0  0  0  0  0  0  0  0
    1.1213    5.9471    0.1244 C   0  0  0  0  0  0  0  0  0  0  0  0
    1.0737    7.2663    0.2291 N   0  0  0  0  0  0  0  0  0  0  0  0
   -0.0643    5.2439    0.0281 N   0  0  0  0  0  0  0  0  0  0  0  0
   -0.0425    3.8650   -0.2009 C   0  0  0  0  0  0  0  0  0  0  0  0
   -1.0219    3.0516    0.3562 C   0  0  0  0  0  0  0  0  0  0  0  0
   -0.9997    1.6892    0.1306 C   0  0  0  0  0  0  0  0  0  0  0  0
   -0.0044    1.1313   -0.6495 C   0  0  0  0  0  0  0  0  0  0  0  0
    0.9791    1.9380   -1.2044 C   0  0  0  0  0  0  0  0  0  0  0  0
    0.9576    3.3064   -0.9844 C   0  0  0  0  0  0  0  0  0  0  0  0
    1.9599    1.3872   -1.9669 O   0  0  0  0  0  0  0  0  0  0  0  0
    0.5036   10.1202    1.4720 H   0  0  0  0  0  0  0  0  0  0  0  0
    0.9731   11.0267    0.0140 H   0  0  0  0  0  0  0  0  0  0  0  0
    0.1384    9.4623   -0.1411 H   0  0  0  0  0  0  0  0  0  0  0  0
    5.5890    7.5068    0.4007 H   0  0  0  0  0  0  0  0  0  0  0  0
    7.9830   11.3994    2.9367 H   0  0  0  0  0  0  0  0  0  0  0  0
    9.0886   12.2219    0.8993 H   0  0  0  0  0  0  0  0  0  0  0  0
    8.1269   11.7413   -1.3130 H   0  0  0  0  0  0  0  0  0  0  0  0
    4.3535    5.3446    0.1854 H   0  0  0  0  0  0  0  0  0  0  0  0
   -0.9117    5.7071    0.1193 H   0  0  0  0  0  0  0  0  0  0  0  0
   -1.8007    3.4851    0.9661 H   0  0  0  0  0  0  0  0  0  0  0  0
   -1.7612    1.0585    0.5650 H   0  0  0  0  0  0  0  0  0  0  0  0
    0.0105    0.0656   -0.8237 H   0  0  0  0  0  0  0  0  0  0  0  0
    1.7198    3.9362   -1.4189 H   0  0  0  0  0  0  0  0  0  0  0  0
    1.7457    1.3391   -2.9087 H   0  0  0  0  0  0  0  0  0  0  0  0
  1  2  1  0  0  0  0
  1 29  1  0  0  0  0
  1 30  1  0  0  0  0
  1 31  1  0  0  0  0
  2  7  1  0  0  0  0
  2  3  1  0  0  0  0
  3 20  2  0  0  0  0
  3  4  1  0  0  0  0
  4  5  1  0  0  0  0
  4 17  2  0  0  0  0
  5  6  2  0  0  0  0
  5 32  1  0  0  0  0
  6  7  1  0  0  0  0
  6  9  1  0  0  0  0
  7  8  2  0  0  0  0
  9 14  2  0  0  0  0
  9 10  1  0  0  0  0
 10 11  2  0  0  0  0
 10 16  1  0  0  0  0
 11 12  1  0  0  0  0
 11 33  1  0  0  0  0
 12 13  2  0  0  0  0
 12 34  1  0  0  0  0
 13 14  1  0  0  0  0
 13 35  1  0  0  0  0
 14 15  1  0  0  0  0
 17 18  1  0  0  0  0
 17 36  1  0  0  0  0
 18 19  2  0  0  0  0
 19 20  1  0  0  0  0
 19 21  1  0  0  0  0
 21 22  1  0  0  0  0
 21 37  1  0  0  0  0
 22 27  2  0  0  0  0
 22 23  1  0  0  0  0
 23 24  2  0  0  0  0
 23 38  1  0  0  0  0
 24 25  1  0  0  0  0
 24 39  1  0  0  0  0
 25 26  2  0  0  0  0
 25 40  1  0  0  0  0
 26 27  1  0  0  0  0
 26 28  1  0  0  0  0
 27 41  1  0  0  0  0
 28 42  1  0  0  0  0
M  END
$$$$
ZINC03815289
  -OEChem-08230709403D

 73 76  0     0  0  0  0  0  0999 V2000
   -4.5476    1.9598   -6.0779 C   0  0  0  0  0  0  0  0  0  0  0  0
   -3.1554    1.3302   -5.9996 C   0  0  0  0  0  0  0  0  0  0  0  0
   -2.2965    1.8463   -7.1558 C   0  0  0  0  0  0  0  0  0  0  0  0
   -3.2778   -0.1919   -6.0951 C   0  0  0  0  0  0  0  0  0  0  0  0
   -2.5274    1.6906   -4.7260 N   0  0  0  0  0  0  0  0  0  0  0  0
   -3.1104    1.3372   -3.5634 C   0  0  0  0  0  0  0  0  0  0  0  0
   -4.1574    0.7194   -3.5715 O   0  0  0  0  0  0  0  0  0  0  0  0
   -2.5327    1.6688   -2.3917 N   0  0  0  0  0  0  0  0  0  0  0  0
   -3.1328    1.3050   -1.1949 C   0  0  0  0  0  0  0  0  0  0  0  0
   -2.5145    1.6602    0.0229 C   0  0  0  0  0  0  0  0  0  0  0  0
   -3.1075    1.2934    1.2205 C   0  0  0  0  0  0  0  0  0  0  0  0
   -4.3191    0.5850    1.1654 C   0  0  0  0  0  0  0  0  0  0  0  0
   -4.9944    0.1771    2.3285 C   0  0  0  0  0  0  0  0  0  0  0  0
   -6.1242   -0.4885    2.1986 N   0  0  0  0  0  0  0  0  0  0  0  0
   -6.6263   -0.7753    0.9994 C   0  0  0  0  0  0  0  0  0  0  0  0
   -6.0355   -0.4176   -0.1249 N   0  0  0  0  0  0  0  0  0  0  0  0
   -4.8825    0.2626   -0.0970 C   0  0  0  0  0  0  0  0  0  0  0  0
   -4.2670    0.6354   -1.2206 N   0  0  0  0  0  0  0  0  0  0  0  0
   -7.8150   -1.4767    0.9293 N   0  0  0  0  0  0  0  0  0  0  0  0
   -8.4959   -1.8890    2.1592 C   0  0  0  0  0  0  0  0  0  0  0  0
   -9.7785   -2.6436    1.8036 C   0  0  0  0  0  0  0  0  0  0  0  0
  -10.4896   -3.0741    3.0880 C   0  0  0  0  0  0  0  0  0  0  0  0
  -12.6921   -2.9089    2.0947 C   0  0  0  0  0  0  0  0  0  0  0  0
  -13.9253   -3.7171    1.6845 C   0  0  0  0  0  0  0  0  0  0  0  0
  -13.5403   -5.2394    3.5265 C   0  0  0  0  0  0  0  0  0  0  0  0
  -12.3071   -4.4312    3.9367 C   0  0  0  0  0  0  0  0  0  0  0  0
  -15.7428   -5.0741    2.5331 C   0  0  0  0  0  0  0  0  0  0  0  0
   -1.2380    2.4142    0.0210 C   0  0  0  0  0  0  0  0  0  0  0  0
   -1.2484    3.8090    0.0341 C   0  0  0  0  0  0  0  0  0  0  0  0
   -0.0556    4.5057    0.0264 C   0  0  0  0  0  0  0  0  0  0  0  0
    1.1473    3.8231    0.0117 C   0  0  0  0  0  0  0  0  0  0  0  0
    1.1644    2.4401    0.0040 C   0  0  0  0  0  0  0  0  0  0  0  0
   -0.0215    1.7317    0.0116 C   0  0  0  0  0  0  0  0  0  0  0  0
    0.0021   -0.0041    0.0020 Cl  0  0  0  0  0  0  0  0  0  0  0  0
   -2.7571    4.6675    0.0520 Cl  0  0  0  0  0  0  0  0  0  0  0  0
   -4.4604    3.0441   -6.0098 H   0  0  0  0  0  0  0  0  0  0  0  0
   -5.0148    1.6916   -7.0255 H   0  0  0  0  0  0  0  0  0  0  0  0
   -5.1595    1.5921   -5.2542 H   0  0  0  0  0  0  0  0  0  0  0  0
   -1.3046    1.3978   -7.1000 H   0  0  0  0  0  0  0  0  0  0  0  0
   -2.7637    1.5782   -8.1034 H   0  0  0  0  0  0  0  0  0  0  0  0
   -2.2092    2.9307   -7.0877 H   0  0  0  0  0  0  0  0  0  0  0  0
   -3.8897   -0.5596   -5.2714 H   0  0  0  0  0  0  0  0  0  0  0  0
   -3.7450   -0.4601   -7.0427 H   0  0  0  0  0  0  0  0  0  0  0  0
   -2.2859   -0.6404   -6.0393 H   0  0  0  0  0  0  0  0  0  0  0  0
   -1.6920    2.1835   -4.7195 H   0  0  0  0  0  0  0  0  0  0  0  0
   -1.6973    2.1617   -2.3852 H   0  0  0  0  0  0  0  0  0  0  0  0
   -2.6541    1.5480    2.1670 H   0  0  0  0  0  0  0  0  0  0  0  0
   -4.5967    0.4044    3.3065 H   0  0  0  0  0  0  0  0  0  0  0  0
   -8.1984   -1.6961    0.0657 H   0  0  0  0  0  0  0  0  0  0  0  0
   -7.8397   -2.5398    2.7371 H   0  0  0  0  0  0  0  0  0  0  0  0
   -8.7449   -1.0073    2.7496 H   0  0  0  0  0  0  0  0  0  0  0  0
  -10.4346   -1.9927    1.2257 H   0  0  0  0  0  0  0  0  0  0  0  0
   -9.5295   -3.5253    1.2131 H   0  0  0  0  0  0  0  0  0  0  0  0
   -9.8335   -3.7250    3.6659 H   0  0  0  0  0  0  0  0  0  0  0  0
  -10.7386   -2.1924    3.6785 H   0  0  0  0  0  0  0  0  0  0  0  0
  -12.9873   -2.1219    2.7887 H   0  0  0  0  0  0  0  0  0  0  0  0
  -12.2390   -2.4624    1.2096 H   0  0  0  0  0  0  0  0  0  0  0  0
  -13.6345   -4.4867    0.9696 H   0  0  0  0  0  0  0  0  0  0  0  0
  -14.6593   -3.0540    1.2265 H   0  0  0  0  0  0  0  0  0  0  0  0
  -13.2451   -6.0264    2.8325 H   0  0  0  0  0  0  0  0  0  0  0  0
  -13.9932   -5.6862    4.4116 H   0  0  0  0  0  0  0  0  0  0  0  0
  -11.5733   -5.0946    4.3945 H   0  0  0  0  0  0  0  0  0  0  0  0
  -12.5979   -3.6615    4.6516 H   0  0  0  0  0  0  0  0  0  0  0  0
  -16.1918   -5.4757    3.4416 H   0  0  0  0  0  0  0  0  0  0  0  0
  -16.4440   -4.3923    2.0520 H   0  0  0  0  0  0  0  0  0  0  0  0
  -15.5063   -5.8920    1.8525 H   0  0  0  0  0  0  0  0  0  0  0  0
   -0.0624    5.5856    0.0323 H   0  0  0  0  0  0  0  0  0  0  0  0
    2.0771    4.3724    0.0058 H   0  0  0  0  0  0  0  0  0  0  0  0
    2.1069    1.9129   -0.0075 H   0  0  0  0  0  0  0  0  0  0  0  0
  -11.7151   -3.8190    2.7284 N   0  3  0  0  0  0  0  0  0  0  0  0
  -11.4708   -4.5620    2.0633 H   0  0  0  0  0  0  0  0  0  0  0  0
  -14.5173   -4.3291    2.8925 N   0  3  0  0  0  0  0  0  0  0  0  0
  -14.7616   -3.5860    3.5576 H   0  0  0  0  0  0  0  0  0  0  0  0
  1  2  1  0  0  0  0
  1 36  1  0  0  0  0
  1 37  1  0  0  0  0
  1 38  1  0  0  0  0
  2  3  1  0  0  0  0
  2  4  1  0  0  0  0
  2  5  1  0  0  0  0
  3 39  1  0  0  0  0
  3 40  1  0  0  0  0
  3 41  1  0  0  0  0
  4 42  1  0  0  0  0
  4 43  1  0  0  0  0
  4 44  1  0  0  0  0
  5  6  1  0  0  0  0
  5 45  1  0  0  0  0
  6  7  2  0  0  0  0
  6  8  1  0  0  0  0
  8  9  1  0  0  0  0
  8 46  1  0  0  0  0
  9 18  2  0  0  0  0
  9 10  1  0  0  0  0
 10 11  2  0  0  0  0
 10 28  1  0  0  0  0
 11 12  1  0  0  0  0
 11 47  1  0  0  0  0
 12 17  2  0  0  0  0
 12 13  1  0  0  0  0
 13 14  2  0  0  0  0
 13 48  1  0  0  0  0
 14 15  1  0  0  0  0
 15 16  2  0  0  0  0
 15 19  1  0  0  0  0
 16 17  1  0  0  0  0
 17 18  1  0  0  0  0
 19 20  1  0  0  0  0
 19 49  1  0  0  0  0
 20 21  1  0  0  0  0
 20 50  1  0  0  0  0
 20 51  1  0  0  0  0
 21 22  1  0  0  0  0
 21 52  1  0  0  0  0
 21 53  1  0  0  0  0
 22 54  1  0  0  0  0
 22 55  1  0  0  0  0
 22 70  1  0  0  0  0
 23 24  1  0  0  0  0
 23 56  1  0  0  0  0
 23 57  1  0  0  0  0
 23 70  1  0  0  0  0
 24 58  1  0  0  0  0
 24 59  1  0  0  0  0
 24 72  1  0  0  0  0
 25 26  1  0  0  0  0
 25 60  1  0  0  0  0
 25 61  1  0  0  0  0
 25 72  1  0  0  0  0
 26 62  1  0  0  0  0
 26 63  1  0  0  0  0
 26 70  1  0  0  0  0
 27 64  1  0  0  0  0
 27 65  1  0  0  0  0
 27 66  1  0  0  0  0
 27 72  1  0  0  0  0
 28 33  2  0  0  0  0
 28 29  1  0  0  0  0
 29 30  2  0  0  0  0
 29 35  1  0  0  0  0
 30 31  1  0  0  0  0
 30 67  1  0  0  0  0
 31 32  2  0  0  0  0
 31 68  1  0  0  0  0
 32 33  1  0  0  0  0
 32 69  1  0  0  0  0
 33 34  1  0  0  0  0
 70 71  1  0  0  0  0
 72 73  1  0  0  0  0
M  CHG  2  70   1  72   1
M  END
$$$$
ZINC03815299
  -OEChem-08230709403D

 43 46  0     0  0  0  0  0  0999 V2000
    0.0695    1.0902    0.1128 C   0  0  0  0  0  0  0  0  0  0  0  0
   -0.4234    1.5836    1.4011 N   0  0  0  0  0  0  0  0  0  0  0  0
   -0.5357    2.9345    1.6130 C   0  0  0  0  0  0  0  0  0  0  0  0
   -1.0136    3.4263    2.8471 C   0  0  0  0  0  0  0  0  0  0  0  0
   -1.3712    2.5296    3.8797 C   0  0  0  0  0  0  0  0  0  0  0  0
   -1.2509    1.1835    3.6609 C   0  0  0  0  0  0  0  0  0  0  0  0
   -0.7566    0.7065    2.3675 C   0  0  0  0  0  0  0  0  0  0  0  0
   -0.6465   -0.4896    2.1646 O   0  0  0  0  0  0  0  0  0  0  0  0
   -1.6171    0.2179    4.7234 C   0  0  0  0  0  0  0  0  0  0  0  0
   -0.6581   -0.2099    5.6423 C   0  0  0  0  0  0  0  0  0  0  0  0
   -1.0070   -1.1072    6.6326 C   0  0  0  0  0  0  0  0  0  0  0  0
   -2.3015   -1.5886    6.7091 C   0  0  0  0  0  0  0  0  0  0  0  0
   -3.2558   -1.1722    5.7984 C   0  0  0  0  0  0  0  0  0  0  0  0
   -2.9211   -0.2719    4.8059 C   0  0  0  0  0  0  0  0  0  0  0  0
   -4.1199    0.2486    3.6632 Cl  0  0  0  0  0  0  0  0  0  0  0  0
    0.9686    0.3884    5.5442 Cl  0  0  0  0  0  0  0  0  0  0  0  0
   -1.1184    4.8145    3.0209 C   0  0  0  0  0  0  0  0  0  0  0  0
   -0.7703    5.6043    2.0224 N   0  0  0  0  0  0  0  0  0  0  0  0
   -0.3288    5.1057    0.8729 C   0  0  0  0  0  0  0  0  0  0  0  0
   -0.2122    3.8036    0.6621 N   0  0  0  0  0  0  0  0  0  0  0  0
    0.0221    5.9779   -0.1397 N   0  0  0  0  0  0  0  0  0  0  0  0
   -0.1985    7.3504    0.0118 C   0  0  0  0  0  0  0  0  0  0  0  0
   -1.3062    7.8023    0.7201 C   0  0  0  0  0  0  0  0  0  0  0  0
   -1.5263    9.1577    0.8769 C   0  0  0  0  0  0  0  0  0  0  0  0
   -0.6538   10.0721    0.3226 C   0  0  0  0  0  0  0  0  0  0  0  0
    0.4589    9.6289   -0.3951 C   0  0  0  0  0  0  0  0  0  0  0  0
    0.6840    8.2603   -0.5489 C   0  0  0  0  0  0  0  0  0  0  0  0
    1.3944   10.6055   -0.9900 C   0  0  0  0  0  0  0  0  0  0  0  0
    2.3615   10.2176   -1.6144 O   0  0  0  0  0  0  0  0  0  0  0  0
    0.0962    0.0006    0.1271 H   0  0  0  0  0  0  0  0  0  0  0  0
    1.0736    1.4760   -0.0639 H   0  0  0  0  0  0  0  0  0  0  0  0
   -0.5944    1.4270   -0.6834 H   0  0  0  0  0  0  0  0  0  0  0  0
   -1.7342    2.9008    4.8267 H   0  0  0  0  0  0  0  0  0  0  0  0
   -0.2666   -1.4366    7.3465 H   0  0  0  0  0  0  0  0  0  0  0  0
   -2.5683   -2.2930    7.4831 H   0  0  0  0  0  0  0  0  0  0  0  0
   -4.2647   -1.5521    5.8634 H   0  0  0  0  0  0  0  0  0  0  0  0
   -1.4761    5.2281    3.9523 H   0  0  0  0  0  0  0  0  0  0  0  0
    0.4216    5.6381   -0.9558 H   0  0  0  0  0  0  0  0  0  0  0  0
   -1.9951    7.0917    1.1524 H   0  0  0  0  0  0  0  0  0  0  0  0
   -2.3864    9.5026    1.4317 H   0  0  0  0  0  0  0  0  0  0  0  0
   -0.8318   11.1304    0.4436 H   0  0  0  0  0  0  0  0  0  0  0  0
    1.5427    7.9114   -1.1033 H   0  0  0  0  0  0  0  0  0  0  0  0
    1.1749   11.9261   -0.8401 O   0  5  0  0  0  0  0  0  0  0  0  0
  1  2  1  0  0  0  0
  1 30  1  0  0  0  0
  1 31  1  0  0  0  0
  1 32  1  0  0  0  0
  2  7  1  0  0  0  0
  2  3  1  0  0  0  0
  3 20  2  0  0  0  0
  3  4  1  0  0  0  0
  4  5  1  0  0  0  0
  4 17  2  0  0  0  0
  5  6  2  0  0  0  0
  5 33  1  0  0  0  0
  6  7  1  0  0  0  0
  6  9  1  0  0  0  0
  7  8  2  0  0  0  0
  9 14  2  0  0  0  0
  9 10  1  0  0  0  0
 10 11  2  0  0  0  0
 10 16  1  0  0  0  0
 11 12  1  0  0  0  0
 11 34  1  0  0  0  0
 12 13  2  0  0  0  0
 12 35  1  0  0  0  0
 13 14  1  0  0  0  0
 13 36  1  0  0  0  0
 14 15  1  0  0  0  0
 17 18  1  0  0  0  0
 17 37  1  0  0  0  0
 18 19  2  0  0  0  0
 19 20  1  0  0  0  0
 19 21  1  0  0  0  0
 21 22  1  0  0  0  0
 21 38  1  0  0  0  0
 22 27  2  0  0  0  0
 22 23  1  0  0  0  0
 23 24  2  0  0  0  0
 23 39  1  0  0  0  0
 24 25  1  0  0  0  0
 24 40  1  0  0  0  0
 25 26  2  0  0  0  0
 25 41  1  0  0  0  0
 26 27  1  0  0  0  0
 26 28  1  0  0  0  0
 27 42  1  0  0  0  0
 28 29  2  0  0  0  0
 28 43  1  0  0  0  0
M  CHG  1  43  -1
M  END
$$$$
ZINC03815302
  -OEChem-08230709403D

 44 47  0     0  0  0  0  0  0999 V2000
   -0.2303    0.9301    0.1276 C   0  0  0  0  0  0  0  0  0  0  0  0
   -0.7905    1.6082    1.3795 C   0  0  0  0  0  0  0  0  0  0  0  0
   -2.1926    1.2228    1.5577 N   0  0  0  0  0  0  0  0  0  0  0  0
   -3.1832    1.9813    0.9868 C   0  0  0  0  0  0  0  0  0  0  0  0
   -4.5390    1.6210    1.1448 C   0  0  0  0  0  0  0  0  0  0  0  0
   -4.8881    0.4799    1.9026 C   0  0  0  0  0  0  0  0  0  0  0  0
   -3.8931   -0.2679    2.4729 C   0  0  0  0  0  0  0  0  0  0  0  0
   -2.4965    0.1305    2.2849 C   0  0  0  0  0  0  0  0  0  0  0  0
   -1.6050   -0.5294    2.7885 O   0  0  0  0  0  0  0  0  0  0  0  0
   -4.2264   -1.4693    3.2733 C   0  0  0  0  0  0  0  0  0  0  0  0
   -4.4384   -1.3586    4.6481 C   0  0  0  0  0  0  0  0  0  0  0  0
   -4.7549   -2.4814    5.3875 C   0  0  0  0  0  0  0  0  0  0  0  0
   -4.8501   -3.7156    4.7701 C   0  0  0  0  0  0  0  0  0  0  0  0
   -4.6351   -3.8332    3.4087 C   0  0  0  0  0  0  0  0  0  0  0  0
   -4.3240   -2.7172    2.6567 C   0  0  0  0  0  0  0  0  0  0  0  0
   -4.0545   -2.8669    0.9483 Cl  0  0  0  0  0  0  0  0  0  0  0  0
   -4.3117    0.1881    5.4261 Cl  0  0  0  0  0  0  0  0  0  0  0  0
   -5.5207    2.4204    0.5401 C   0  0  0  0  0  0  0  0  0  0  0  0
   -5.1367    3.4741   -0.1560 N   0  0  0  0  0  0  0  0  0  0  0  0
   -3.8507    3.7801   -0.2875 C   0  0  0  0  0  0  0  0  0  0  0  0
   -2.8888    3.0566    0.2647 N   0  0  0  0  0  0  0  0  0  0  0  0
   -3.5041    4.8945   -1.0272 N   0  0  0  0  0  0  0  0  0  0  0  0
   -4.4879    5.6099   -1.7162 C   0  0  0  0  0  0  0  0  0  0  0  0
   -5.5746    4.9439   -2.2683 C   0  0  0  0  0  0  0  0  0  0  0  0
   -6.5475    5.6543   -2.9437 C   0  0  0  0  0  0  0  0  0  0  0  0
   -6.4352    7.0259   -3.0796 C   0  0  0  0  0  0  0  0  0  0  0  0
   -5.3517    7.6914   -2.5360 C   0  0  0  0  0  0  0  0  0  0  0  0
   -4.3780    6.9877   -1.8549 C   0  0  0  0  0  0  0  0  0  0  0  0
   -0.2982   -0.1520    0.2393 H   0  0  0  0  0  0  0  0  0  0  0  0
    0.8129    1.2169   -0.0049 H   0  0  0  0  0  0  0  0  0  0  0  0
   -0.8064    1.2424   -0.7434 H   0  0  0  0  0  0  0  0  0  0  0  0
   -0.2143    1.2960    2.2505 H   0  0  0  0  0  0  0  0  0  0  0  0
   -0.7225    2.6904    1.2679 H   0  0  0  0  0  0  0  0  0  0  0  0
   -5.9240    0.2021    2.0295 H   0  0  0  0  0  0  0  0  0  0  0  0
   -4.9243   -2.3963    6.4507 H   0  0  0  0  0  0  0  0  0  0  0  0
   -5.0931   -4.5913    5.3536 H   0  0  0  0  0  0  0  0  0  0  0  0
   -4.7109   -4.7997    2.9327 H   0  0  0  0  0  0  0  0  0  0  0  0
   -6.5683    2.1789    0.6423 H   0  0  0  0  0  0  0  0  0  0  0  0
   -2.5781    5.1804   -1.0685 H   0  0  0  0  0  0  0  0  0  0  0  0
   -5.6608    3.8722   -2.1661 H   0  0  0  0  0  0  0  0  0  0  0  0
   -7.3948    5.1376   -3.3698 H   0  0  0  0  0  0  0  0  0  0  0  0
   -7.1953    7.5786   -3.6118 H   0  0  0  0  0  0  0  0  0  0  0  0
   -5.2670    8.7626   -2.6439 H   0  0  0  0  0  0  0  0  0  0  0  0
   -3.5319    7.5079   -1.4309 H   0  0  0  0  0  0  0  0  0  0  0  0
  1  2  1  0  0  0  0
  1 29  1  0  0  0  0
  1 30  1  0  0  0  0
  1 31  1  0  0  0  0
  2  3  1  0  0  0  0
  2 32  1  0  0  0  0
  2 33  1  0  0  0  0
  3  8  1  0  0  0  0
  3  4  1  0  0  0  0
  4 21  2  0  0  0  0
  4  5  1  0  0  0  0
  5  6  1  0  0  0  0
  5 18  2  0  0  0  0
  6  7  2  0  0  0  0
  6 34  1  0  0  0  0
  7  8  1  0  0  0  0
  7 10  1  0  0  0  0
  8  9  2  0  0  0  0
 10 15  2  0  0  0  0
 10 11  1  0  0  0  0
 11 12  2  0  0  0  0
 11 17  1  0  0  0  0
 12 13  1  0  0  0  0
 12 35  1  0  0  0  0
 13 14  2  0  0  0  0
 13 36  1  0  0  0  0
 14 15  1  0  0  0  0
 14 37  1  0  0  0  0
 15 16  1  0  0  0  0
 18 19  1  0  0  0  0
 18 38  1  0  0  0  0
 19 20  2  0  0  0  0
 20 21  1  0  0  0  0
 20 22  1  0  0  0  0
 22 23  1  0  0  0  0
 22 39  1  0  0  0  0
 23 28  2  0  0  0  0
 23 24  1  0  0  0  0
 24 25  2  0  0  0  0
 24 40  1  0  0  0  0
 25 26  1  0  0  0  0
 25 41  1  0  0  0  0
 26 27  2  0  0  0  0
 26 42  1  0  0  0  0
 27 28  1  0  0  0  0
 27 43  1  0  0  0  0
 28 44  1  0  0  0  0
M  END
$$$$
ZINC03815307
  -OEChem-08230709403D

 62 65  0     0  0  0  0  0  0999 V2000
   -2.2664    2.6406    5.7207 C   0  0  0  0  0  0  0  0  0  0  0  0
   -1.0652    1.8152    5.8687 N   0  0  0  0  0  0  0  0  0  0  0  0
   -0.4094    1.3640    4.7512 C   0  0  0  0  0  0  0  0  0  0  0  0
    0.7497    0.5679    4.8763 C   0  0  0  0  0  0  0  0  0  0  0  0
    1.2453    0.2291    6.1562 C   0  0  0  0  0  0  0  0  0  0  0  0
    0.5843    0.6839    7.2655 C   0  0  0  0  0  0  0  0  0  0  0  0
   -0.6156    1.5073    7.1005 C   0  0  0  0  0  0  0  0  0  0  0  0
   -1.2098    1.9161    8.0821 O   0  0  0  0  0  0  0  0  0  0  0  0
    1.0781    0.3458    8.6209 C   0  0  0  0  0  0  0  0  0  0  0  0
    0.6245   -0.8061    9.2648 C   0  0  0  0  0  0  0  0  0  0  0  0
    1.0925   -1.1181   10.5262 C   0  0  0  0  0  0  0  0  0  0  0  0
    2.0012   -0.2863   11.1554 C   0  0  0  0  0  0  0  0  0  0  0  0
    2.4509    0.8598   10.5247 C   0  0  0  0  0  0  0  0  0  0  0  0
    1.9945    1.1808    9.2613 C   0  0  0  0  0  0  0  0  0  0  0  0
    2.5591    2.6202    8.4720 Cl  0  0  0  0  0  0  0  0  0  0  0  0
   -0.5209   -1.8478    8.4796 Cl  0  0  0  0  0  0  0  0  0  0  0  0
    1.3899    0.1267    3.7087 C   0  0  0  0  0  0  0  0  0  0  0  0
    0.8797    0.4693    2.5405 N   0  0  0  0  0  0  0  0  0  0  0  0
   -0.2103    1.2245    2.4609 C   0  0  0  0  0  0  0  0  0  0  0  0
   -0.8488    1.6644    3.5342 N   0  0  0  0  0  0  0  0  0  0  0  0
   -0.6984    1.5583    1.2133 N   0  0  0  0  0  0  0  0  0  0  0  0
   -0.0127    1.0858    0.0080 C   0  0  0  0  0  0  0  0  0  0  0  0
   -0.7527    1.5927   -1.2315 C   0  0  0  0  0  0  0  0  0  0  0  0
   -0.0366    1.0992   -2.4903 C   0  0  0  0  0  0  0  0  0  0  0  0
   -0.7766    1.6061   -3.7298 C   0  0  0  0  0  0  0  0  0  0  0  0
    1.2439    1.7395   -5.0583 C   0  0  0  0  0  0  0  0  0  0  0  0
    1.9566    1.1616   -6.2833 C   0  0  0  0  0  0  0  0  0  0  0  0
   -0.1814    0.8170   -7.3645 C   0  0  0  0  0  0  0  0  0  0  0  0
   -0.8941    1.3949   -6.1395 C   0  0  0  0  0  0  0  0  0  0  0  0
    1.8391    0.9504   -8.6929 C   0  0  0  0  0  0  0  0  0  0  0  0
   -3.1464    1.9984    5.6843 H   0  0  0  0  0  0  0  0  0  0  0  0
   -2.3472    3.3201    6.5692 H   0  0  0  0  0  0  0  0  0  0  0  0
   -2.1993    3.2176    4.7983 H   0  0  0  0  0  0  0  0  0  0  0  0
    2.1320   -0.3790    6.2574 H   0  0  0  0  0  0  0  0  0  0  0  0
    0.7451   -2.0112   11.0242 H   0  0  0  0  0  0  0  0  0  0  0  0
    2.3610   -0.5326   12.1435 H   0  0  0  0  0  0  0  0  0  0  0  0
    3.1601    1.5053   11.0215 H   0  0  0  0  0  0  0  0  0  0  0  0
    2.2790   -0.4839    3.7644 H   0  0  0  0  0  0  0  0  0  0  0  0
   -1.4954    2.1056    1.1349 H   0  0  0  0  0  0  0  0  0  0  0  0
    0.0021   -0.0041    0.0020 H   0  0  0  0  0  0  0  0  0  0  0  0
    1.0099    1.4631    0.0003 H   0  0  0  0  0  0  0  0  0  0  0  0
   -1.7753    1.2154   -1.2238 H   0  0  0  0  0  0  0  0  0  0  0  0
   -0.7675    2.6825   -1.2255 H   0  0  0  0  0  0  0  0  0  0  0  0
    0.9860    1.4765   -2.4981 H   0  0  0  0  0  0  0  0  0  0  0  0
   -0.0218    0.0093   -2.4963 H   0  0  0  0  0  0  0  0  0  0  0  0
   -1.7991    1.2288   -3.7221 H   0  0  0  0  0  0  0  0  0  0  0  0
   -0.7913    2.6960   -3.7239 H   0  0  0  0  0  0  0  0  0  0  0  0
    1.1429    2.8189   -5.1719 H   0  0  0  0  0  0  0  0  0  0  0  0
    1.8251    1.5206   -4.1625 H   0  0  0  0  0  0  0  0  0  0  0  0
    2.0818    0.0862   -6.1574 H   0  0  0  0  0  0  0  0  0  0  0  0
    2.9341    1.6318   -6.3908 H   0  0  0  0  0  0  0  0  0  0  0  0
   -0.0804   -0.2624   -7.2509 H   0  0  0  0  0  0  0  0  0  0  0  0
   -0.7628    1.0356   -8.2602 H   0  0  0  0  0  0  0  0  0  0  0  0
   -1.8715    0.9247   -6.0320 H   0  0  0  0  0  0  0  0  0  0  0  0
   -1.0193    2.4703   -6.2654 H   0  0  0  0  0  0  0  0  0  0  0  0
    1.2531    1.2172   -9.5725 H   0  0  0  0  0  0  0  0  0  0  0  0
    2.8229    1.4153   -8.7571 H   0  0  0  0  0  0  0  0  0  0  0  0
    1.9514   -0.1327   -8.6461 H   0  0  0  0  0  0  0  0  0  0  0  0
   -0.0853    1.1047   -4.9368 N   0  3  0  0  0  0  0  0  0  0  0  0
    0.0365    0.0886   -4.8536 H   0  0  0  0  0  0  0  0  0  0  0  0
    1.1480    1.4519   -7.4859 N   0  3  0  0  0  0  0  0  0  0  0  0
    1.0263    2.4680   -7.5691 H   0  0  0  0  0  0  0  0  0  0  0  0
  1  2  1  0  0  0  0
  1 31  1  0  0  0  0
  1 32  1  0  0  0  0
  1 33  1  0  0  0  0
  2  7  1  0  0  0  0
  2  3  1  0  0  0  0
  3 20  2  0  0  0  0
  3  4  1  0  0  0  0
  4  5  1  0  0  0  0
  4 17  2  0  0  0  0
  5  6  2  0  0  0  0
  5 34  1  0  0  0  0
  6  7  1  0  0  0  0
  6  9  1  0  0  0  0
  7  8  2  0  0  0  0
  9 14  2  0  0  0  0
  9 10  1  0  0  0  0
 10 11  2  0  0  0  0
 10 16  1  0  0  0  0
 11 12  1  0  0  0  0
 11 35  1  0  0  0  0
 12 13  2  0  0  0  0
 12 36  1  0  0  0  0
 13 14  1  0  0  0  0
 13 37  1  0  0  0  0
 14 15  1  0  0  0  0
 17 18  1  0  0  0  0
 17 38  1  0  0  0  0
 18 19  2  0  0  0  0
 19 20  1  0  0  0  0
 19 21  1  0  0  0  0
 21 22  1  0  0  0  0
 21 39  1  0  0  0  0
 22 23  1  0  0  0  0
 22 40  1  0  0  0  0
 22 41  1  0  0  0  0
 23 24  1  0  0  0  0
 23 42  1  0  0  0  0
 23 43  1  0  0  0  0
 24 25  1  0  0  0  0
 24 44  1  0  0  0  0
 24 45  1  0  0  0  0
 25 46  1  0  0  0  0
 25 47  1  0  0  0  0
 25 59  1  0  0  0  0
 26 27  1  0  0  0  0
 26 48  1  0  0  0  0
 26 49  1  0  0  0  0
 26 59  1  0  0  0  0
 27 50  1  0  0  0  0
 27 51  1  0  0  0  0
 27 61  1  0  0  0  0
 28 29  1  0  0  0  0
 28 52  1  0  0  0  0
 28 53  1  0  0  0  0
 28 61  1  0  0  0  0
 29 54  1  0  0  0  0
 29 55  1  0  0  0  0
 29 59  1  0  0  0  0
 30 56  1  0  0  0  0
 30 57  1  0  0  0  0
 30 58  1  0  0  0  0
 30 61  1  0  0  0  0
 59 60  1  0  0  0  0
 61 62  1  0  0  0  0
M  CHG  2  59   1  61   1
M  END
$$$$
ZINC03815308
  -OEChem-08230709403D

 46 49  0     0  0  0  0  0  0999 V2000
   -9.4546   -4.6479   -0.9492 C   0  0  0  0  0  0  0  0  0  0  0  0
   -8.9344   -4.1755   -2.2347 N   0  0  0  0  0  0  0  0  0  0  0  0
   -7.8393   -3.3493   -2.2619 C   0  0  0  0  0  0  0  0  0  0  0  0
   -7.3255   -2.8851   -3.4921 C   0  0  0  0  0  0  0  0  0  0  0  0
   -7.9362   -3.2683   -4.7080 C   0  0  0  0  0  0  0  0  0  0  0  0
   -9.0282   -4.0933   -4.6711 C   0  0  0  0  0  0  0  0  0  0  0  0
   -9.5359   -4.5568   -3.3779 C   0  0  0  0  0  0  0  0  0  0  0  0
  -10.5068   -5.2913   -3.3361 O   0  0  0  0  0  0  0  0  0  0  0  0
   -9.6908   -4.5129   -5.9281 C   0  0  0  0  0  0  0  0  0  0  0  0
  -10.7328   -3.7517   -6.4589 C   0  0  0  0  0  0  0  0  0  0  0  0
  -11.3436   -4.1463   -7.6331 C   0  0  0  0  0  0  0  0  0  0  0  0
  -10.9306   -5.2984   -8.2778 C   0  0  0  0  0  0  0  0  0  0  0  0
   -9.9015   -6.0601   -7.7544 C   0  0  0  0  0  0  0  0  0  0  0  0
   -9.2793   -5.6743   -6.5832 C   0  0  0  0  0  0  0  0  0  0  0  0
   -7.9887   -6.6323   -5.9273 Cl  0  0  0  0  0  0  0  0  0  0  0  0
  -11.2566   -2.3087   -5.6482 Cl  0  0  0  0  0  0  0  0  0  0  0  0
   -6.2039   -2.0424   -3.4758 C   0  0  0  0  0  0  0  0  0  0  0  0
   -5.6746   -1.7178   -2.3111 N   0  0  0  0  0  0  0  0  0  0  0  0
   -6.1852   -2.1737   -1.1726 C   0  0  0  0  0  0  0  0  0  0  0  0
   -7.2389   -2.9749   -1.1378 N   0  0  0  0  0  0  0  0  0  0  0  0
   -5.5914   -1.8029    0.0188 N   0  0  0  0  0  0  0  0  0  0  0  0
   -4.5481   -0.8724    0.0199 C   0  0  0  0  0  0  0  0  0  0  0  0
   -4.5383    0.1635   -0.9055 C   0  0  0  0  0  0  0  0  0  0  0  0
   -3.5058    1.0807   -0.9019 C   0  0  0  0  0  0  0  0  0  0  0  0
   -2.4826    0.9687    0.0215 C   0  0  0  0  0  0  0  0  0  0  0  0
   -2.4865   -0.0644    0.9407 C   0  0  0  0  0  0  0  0  0  0  0  0
   -3.5187   -0.9820    0.9460 C   0  0  0  0  0  0  0  0  0  0  0  0
   -1.3573    1.9712    0.0221 C   0  0  0  0  0  0  0  0  0  0  0  0
   -1.7105    3.1223    0.9283 C   0  0  0  0  0  0  0  0  0  0  0  0
   -2.7675    3.1280    1.5137 O   0  0  0  0  0  0  0  0  0  0  0  0
  -10.2009   -3.9451   -0.5788 H   0  0  0  0  0  0  0  0  0  0  0  0
   -9.9125   -5.6283   -1.0808 H   0  0  0  0  0  0  0  0  0  0  0  0
   -8.6374   -4.7219   -0.2317 H   0  0  0  0  0  0  0  0  0  0  0  0
   -7.5472   -2.9157   -5.6518 H   0  0  0  0  0  0  0  0  0  0  0  0
  -12.1478   -3.5560   -8.0470 H   0  0  0  0  0  0  0  0  0  0  0  0
  -11.4141   -5.6047   -9.1937 H   0  0  0  0  0  0  0  0  0  0  0  0
   -9.5840   -6.9588   -8.2624 H   0  0  0  0  0  0  0  0  0  0  0  0
   -5.7824   -1.6676   -4.3968 H   0  0  0  0  0  0  0  0  0  0  0  0
   -5.8986   -2.1882    0.8543 H   0  0  0  0  0  0  0  0  0  0  0  0
   -5.3369    0.2513   -1.6271 H   0  0  0  0  0  0  0  0  0  0  0  0
   -3.4978    1.8866   -1.6209 H   0  0  0  0  0  0  0  0  0  0  0  0
   -1.6836   -0.1516    1.6577 H   0  0  0  0  0  0  0  0  0  0  0  0
   -3.5235   -1.7860    1.6671 H   0  0  0  0  0  0  0  0  0  0  0  0
   -1.2000    2.3414   -0.9910 H   0  0  0  0  0  0  0  0  0  0  0  0
   -0.4453    1.4935    0.3800 H   0  0  0  0  0  0  0  0  0  0  0  0
   -0.8485    4.1385    1.0896 O   0  5  0  0  0  0  0  0  0  0  0  0
  1  2  1  0  0  0  0
  1 31  1  0  0  0  0
  1 32  1  0  0  0  0
  1 33  1  0  0  0  0
  2  7  1  0  0  0  0
  2  3  1  0  0  0  0
  3 20  2  0  0  0  0
  3  4  1  0  0  0  0
  4  5  1  0  0  0  0
  4 17  2  0  0  0  0
  5  6  2  0  0  0  0
  5 34  1  0  0  0  0
  6  7  1  0  0  0  0
  6  9  1  0  0  0  0
  7  8  2  0  0  0  0
  9 14  2  0  0  0  0
  9 10  1  0  0  0  0
 10 11  2  0  0  0  0
 10 16  1  0  0  0  0
 11 12  1  0  0  0  0
 11 35  1  0  0  0  0
 12 13  2  0  0  0  0
 12 36  1  0  0  0  0
 13 14  1  0  0  0  0
 13 37  1  0  0  0  0
 14 15  1  0  0  0  0
 17 18  1  0  0  0  0
 17 38  1  0  0  0  0
 18 19  2  0  0  0  0
 19 20  1  0  0  0  0
 19 21  1  0  0  0  0
 21 22  1  0  0  0  0
 21 39  1  0  0  0  0
 22 27  2  0  0  0  0
 22 23  1  0  0  0  0
 23 24  2  0  0  0  0
 23 40  1  0  0  0  0
 24 25  1  0  0  0  0
 24 41  1  0  0  0  0
 25 26  2  0  0  0  0
 25 28  1  0  0  0  0
 26 27  1  0  0  0  0
 26 42  1  0  0  0  0
 27 43  1  0  0  0  0
 28 29  1  0  0  0  0
 28 44  1  0  0  0  0
 28 45  1  0  0  0  0
 29 30  2  0  0  0  0
 29 46  1  0  0  0  0
M  CHG  1  46  -1
M  END
$$$$
ZINC03815309
  -OEChem-08230709403D

 45 48  0     0  0  0  0  0  0999 V2000
    2.0709    8.2772    0.4276 C   0  0  0  0  0  0  0  0  0  0  0  0
    3.3654    7.5914    0.4148 N   0  0  0  0  0  0  0  0  0  0  0  0
    3.4085    6.2243    0.3059 C   0  0  0  0  0  0  0  0  0  0  0  0
    4.6476    5.5480    0.2920 C   0  0  0  0  0  0  0  0  0  0  0  0
    5.8559    6.2749    0.3904 C   0  0  0  0  0  0  0  0  0  0  0  0
    5.8030    7.6388    0.4983 C   0  0  0  0  0  0  0  0  0  0  0  0
    4.5011    8.3093    0.5096 C   0  0  0  0  0  0  0  0  0  0  0  0
    4.4450    9.5224    0.6049 O   0  0  0  0  0  0  0  0  0  0  0  0
    7.0517    8.4293    0.6026 C   0  0  0  0  0  0  0  0  0  0  0  0
    7.5999    8.7114    1.8545 C   0  0  0  0  0  0  0  0  0  0  0  0
    8.7669    9.4447    1.9445 C   0  0  0  0  0  0  0  0  0  0  0  0
    9.3865    9.9078    0.7978 C   0  0  0  0  0  0  0  0  0  0  0  0
    8.8455    9.6361   -0.4460 C   0  0  0  0  0  0  0  0  0  0  0  0
    7.6816    8.8998   -0.5502 C   0  0  0  0  0  0  0  0  0  0  0  0
    7.0036    8.5609   -2.1120 Cl  0  0  0  0  0  0  0  0  0  0  0  0
    6.8202    8.1368    3.2951 Cl  0  0  0  0  0  0  0  0  0  0  0  0
    4.6477    4.1496    0.1787 C   0  0  0  0  0  0  0  0  0  0  0  0
    3.4895    3.5229    0.0897 N   0  0  0  0  0  0  0  0  0  0  0  0
    2.3421    4.1926    0.1060 C   0  0  0  0  0  0  0  0  0  0  0  0
    2.2918    5.5122    0.2062 N   0  0  0  0  0  0  0  0  0  0  0  0
    1.1585    3.4870    0.0093 N   0  0  0  0  0  0  0  0  0  0  0  0
    1.1757    2.0869    0.0133 C   0  0  0  0  0  0  0  0  0  0  0  0
    2.1234    1.4060    0.7660 C   0  0  0  0  0  0  0  0  0  0  0  0
    2.1394    0.0252    0.7698 C   0  0  0  0  0  0  0  0  0  0  0  0
    1.2089   -0.6817    0.0223 C   0  0  0  0  0  0  0  0  0  0  0  0
    0.2619   -0.0022   -0.7299 C   0  0  0  0  0  0  0  0  0  0  0  0
    0.2448    1.3786   -0.7351 C   0  0  0  0  0  0  0  0  0  0  0  0
    1.2253   -2.0414    0.0266 O   0  0  0  0  0  0  0  0  0  0  0  0
    0.2382   -2.7046   -0.7658 C   0  0  0  0  0  0  0  0  0  0  0  0
    1.7162    8.3647    1.4546 H   0  0  0  0  0  0  0  0  0  0  0  0
    2.1823    9.2718   -0.0042 H   0  0  0  0  0  0  0  0  0  0  0  0
    1.3510    7.7055   -0.1580 H   0  0  0  0  0  0  0  0  0  0  0  0
    6.8065    5.7624    0.3799 H   0  0  0  0  0  0  0  0  0  0  0  0
    9.1942    9.6606    2.9126 H   0  0  0  0  0  0  0  0  0  0  0  0
   10.2966   10.4843    0.8739 H   0  0  0  0  0  0  0  0  0  0  0  0
    9.3340   10.0009   -1.3374 H   0  0  0  0  0  0  0  0  0  0  0  0
    5.5758    3.5975    0.1643 H   0  0  0  0  0  0  0  0  0  0  0  0
    0.3154    3.9615   -0.0615 H   0  0  0  0  0  0  0  0  0  0  0  0
    2.8449    1.9561    1.3519 H   0  0  0  0  0  0  0  0  0  0  0  0
    2.8763   -0.5046    1.3552 H   0  0  0  0  0  0  0  0  0  0  0  0
   -0.4620   -0.5533   -1.3119 H   0  0  0  0  0  0  0  0  0  0  0  0
   -0.4923    1.9074   -1.3211 H   0  0  0  0  0  0  0  0  0  0  0  0
   -0.7558   -2.4226   -0.4188 H   0  0  0  0  0  0  0  0  0  0  0  0
    0.3547   -2.4136   -1.8098 H   0  0  0  0  0  0  0  0  0  0  0  0
    0.3629   -3.7835   -0.6733 H   0  0  0  0  0  0  0  0  0  0  0  0
  1  2  1  0  0  0  0
  1 30  1  0  0  0  0
  1 31  1  0  0  0  0
  1 32  1  0  0  0  0
  2  7  1  0  0  0  0
  2  3  1  0  0  0  0
  3 20  2  0  0  0  0
  3  4  1  0  0  0  0
  4  5  1  0  0  0  0
  4 17  2  0  0  0  0
  5  6  2  0  0  0  0
  5 33  1  0  0  0  0
  6  7  1  0  0  0  0
  6  9  1  0  0  0  0
  7  8  2  0  0  0  0
  9 14  2  0  0  0  0
  9 10  1  0  0  0  0
 10 11  2  0  0  0  0
 10 16  1  0  0  0  0
 11 12  1  0  0  0  0
 11 34  1  0  0  0  0
 12 13  2  0  0  0  0
 12 35  1  0  0  0  0
 13 14  1  0  0  0  0
 13 36  1  0  0  0  0
 14 15  1  0  0  0  0
 17 18  1  0  0  0  0
 17 37  1  0  0  0  0
 18 19  2  0  0  0  0
 19 20  1  0  0  0  0
 19 21  1  0  0  0  0
 21 22  1  0  0  0  0
 21 38  1  0  0  0  0
 22 27  2  0  0  0  0
 22 23  1  0  0  0  0
 23 24  2  0  0  0  0
 23 39  1  0  0  0  0
 24 25  1  0  0  0  0
 24 40  1  0  0  0  0
 25 26  2  0  0  0  0
 25 28  1  0  0  0  0
 26 27  1  0  0  0  0
 26 41  1  0  0  0  0
 27 42  1  0  0  0  0
 28 29  1  0  0  0  0
 29 43  1  0  0  0  0
 29 44  1  0  0  0  0
 29 45  1  0  0  0  0
M  END
$$$$
ZINC03815315
  -OEChem-08230709403D

 48 51  0     0  0  0  0  0  0999 V2000
   -4.8073    0.5564   -0.9941 C   0  0  0  0  0  0  0  0  0  0  0  0
   -3.6403    1.3421   -0.4538 C   0  0  0  0  0  0  0  0  0  0  0  0
   -2.3722    0.7952   -0.4720 C   0  0  0  0  0  0  0  0  0  0  0  0
   -1.2971    1.5195    0.0255 C   0  0  0  0  0  0  0  0  0  0  0  0
   -1.4988    2.7911    0.5463 C   0  0  0  0  0  0  0  0  0  0  0  0
   -2.7663    3.3386    0.5586 C   0  0  0  0  0  0  0  0  0  0  0  0
   -3.8400    2.6143    0.0613 C   0  0  0  0  0  0  0  0  0  0  0  0
   -5.0890    3.1518    0.0793 O   0  0  0  0  0  0  0  0  0  0  0  0
   -5.2218    4.4662    0.6241 C   0  0  0  0  0  0  0  0  0  0  0  0
   -0.0111    0.9658    0.0074 N   0  0  0  0  0  0  0  0  0  0  0  0
    1.0883    1.7790   -0.1883 C   0  0  0  0  0  0  0  0  0  0  0  0
    0.8927    3.0625   -0.4717 N   0  0  0  0  0  0  0  0  0  0  0  0
    1.9089    3.8826   -0.6620 C   0  0  0  0  0  0  0  0  0  0  0  0
    3.2120    3.3699   -0.5707 C   0  0  0  0  0  0  0  0  0  0  0  0
    4.3404    4.1976   -0.7699 C   0  0  0  0  0  0  0  0  0  0  0  0
    5.5913    3.6498   -0.6706 C   0  0  0  0  0  0  0  0  0  0  0  0
    5.7297    2.2251   -0.3615 C   0  0  0  0  0  0  0  0  0  0  0  0
    6.8388    1.7295   -0.2712 O   0  0  0  0  0  0  0  0  0  0  0  0
    4.6368    1.4600   -0.1760 N   0  0  0  0  0  0  0  0  0  0  0  0
    3.3794    2.0002   -0.2736 C   0  0  0  0  0  0  0  0  0  0  0  0
    2.2982    1.2499   -0.0919 N   0  0  0  0  0  0  0  0  0  0  0  0
    4.7923    0.0365    0.1336 C   0  0  0  0  0  0  0  0  0  0  0  0
    6.7939    4.4908   -0.8744 C   0  0  0  0  0  0  0  0  0  0  0  0
    7.3464    4.6263   -2.1486 C   0  0  0  0  0  0  0  0  0  0  0  0
    8.4645    5.4160   -2.3327 C   0  0  0  0  0  0  0  0  0  0  0  0
    9.0427    6.0633   -1.2556 C   0  0  0  0  0  0  0  0  0  0  0  0
    8.5033    5.9286    0.0110 C   0  0  0  0  0  0  0  0  0  0  0  0
    7.3824    5.1461    0.2079 C   0  0  0  0  0  0  0  0  0  0  0  0
    6.7073    4.9779    1.7984 Cl  0  0  0  0  0  0  0  0  0  0  0  0
    6.6265    3.8089   -3.5004 Cl  0  0  0  0  0  0  0  0  0  0  0  0
   -5.2489   -0.0358   -0.1926 H   0  0  0  0  0  0  0  0  0  0  0  0
   -5.5542    1.2430   -1.3925 H   0  0  0  0  0  0  0  0  0  0  0  0
   -4.4627   -0.1063   -1.7880 H   0  0  0  0  0  0  0  0  0  0  0  0
   -2.2169   -0.1955   -0.8728 H   0  0  0  0  0  0  0  0  0  0  0  0
   -0.6638    3.3531    0.9379 H   0  0  0  0  0  0  0  0  0  0  0  0
   -2.9227    4.3290    0.9598 H   0  0  0  0  0  0  0  0  0  0  0  0
   -4.8886    4.4647    1.6619 H   0  0  0  0  0  0  0  0  0  0  0  0
   -4.6119    5.1617    0.0476 H   0  0  0  0  0  0  0  0  0  0  0  0
   -6.2662    4.7746    0.5782 H   0  0  0  0  0  0  0  0  0  0  0  0
    0.1075    0.0107    0.1282 H   0  0  0  0  0  0  0  0  0  0  0  0
    1.7411    4.9253   -0.8879 H   0  0  0  0  0  0  0  0  0  0  0  0
    4.2176    5.2464   -0.9967 H   0  0  0  0  0  0  0  0  0  0  0  0
    4.8142   -0.5366   -0.7933 H   0  0  0  0  0  0  0  0  0  0  0  0
    5.7240   -0.1173    0.6779 H   0  0  0  0  0  0  0  0  0  0  0  0
    3.9543   -0.2957    0.7464 H   0  0  0  0  0  0  0  0  0  0  0  0
    8.8905    5.5253   -3.3191 H   0  0  0  0  0  0  0  0  0  0  0  0
    9.9194    6.6763   -1.4042 H   0  0  0  0  0  0  0  0  0  0  0  0
    8.9600    6.4361    0.8479 H   0  0  0  0  0  0  0  0  0  0  0  0
  1  2  1  0  0  0  0
  1 31  1  0  0  0  0
  1 32  1  0  0  0  0
  1 33  1  0  0  0  0
  2  7  2  0  0  0  0
  2  3  1  0  0  0  0
  3  4  2  0  0  0  0
  3 34  1  0  0  0  0
  4  5  1  0  0  0  0
  4 10  1  0  0  0  0
  5  6  2  0  0  0  0
  5 35  1  0  0  0  0
  6  7  1  0  0  0  0
  6 36  1  0  0  0  0
  7  8  1  0  0  0  0
  8  9  1  0  0  0  0
  9 37  1  0  0  0  0
  9 38  1  0  0  0  0
  9 39  1  0  0  0  0
 10 11  1  0  0  0  0
 10 40  1  0  0  0  0
 11 21  2  0  0  0  0
 11 12  1  0  0  0  0
 12 13  2  0  0  0  0
 13 14  1  0  0  0  0
 13 41  1  0  0  0  0
 14 20  2  0  0  0  0
 14 15  1  0  0  0  0
 15 16  2  0  0  0  0
 15 42  1  0  0  0  0
 16 17  1  0  0  0  0
 16 23  1  0  0  0  0
 17 18  2  0  0  0  0
 17 19  1  0  0  0  0
 19 20  1  0  0  0  0
 19 22  1  0  0  0  0
 20 21  1  0  0  0  0
 22 43  1  0  0  0  0
 22 44  1  0  0  0  0
 22 45  1  0  0  0  0
 23 28  2  0  0  0  0
 23 24  1  0  0  0  0
 24 25  2  0  0  0  0
 24 30  1  0  0  0  0
 25 26  1  0  0  0  0
 25 46  1  0  0  0  0
 26 27  2  0  0  0  0
 26 47  1  0  0  0  0
 27 28  1  0  0  0  0
 27 48  1  0  0  0  0
 28 29  1  0  0  0  0
M  END
$$$$
ZINC03815323
  -OEChem-08230709403D

 53 56  0     0  0  0  0  0  0999 V2000
    5.5524    4.9236   -1.7521 C   0  0  0  0  0  0  0  0  0  0  0  0
    4.1411    5.1416   -1.8066 O   0  0  0  0  0  0  0  0  0  0  0  0
    3.3775    4.4674   -0.9071 C   0  0  0  0  0  0  0  0  0  0  0  0
    3.9760    3.6131    0.0094 C   0  0  0  0  0  0  0  0  0  0  0  0
    3.2035    2.9245    0.9257 C   0  0  0  0  0  0  0  0  0  0  0  0
    1.8321    3.0823    0.9352 C   0  0  0  0  0  0  0  0  0  0  0  0
    1.2230    3.9385    0.0187 C   0  0  0  0  0  0  0  0  0  0  0  0
    2.0021    4.6284   -0.9082 C   0  0  0  0  0  0  0  0  0  0  0  0
   -0.2494    4.1097    0.0263 C   0  0  0  0  0  0  0  0  0  0  0  0
   -0.9291    5.2829    0.0364 C   0  0  0  0  0  0  0  0  0  0  0  0
   -2.2759    5.0342    0.0416 N   0  0  0  0  0  0  0  0  0  0  0  0
   -2.5086    3.6829    0.0349 C   0  0  0  0  0  0  0  0  0  0  0  0
   -1.2577    3.0416    0.0304 C   0  0  0  0  0  0  0  0  0  0  0  0
   -1.2185    1.6412    0.0167 C   0  0  0  0  0  0  0  0  0  0  0  0
   -2.3712    0.9770    0.0186 N   0  0  0  0  0  0  0  0  0  0  0  0
   -3.5254    1.6185    0.0280 C   0  0  0  0  0  0  0  0  0  0  0  0
   -3.6085    2.9315    0.0360 N   0  0  0  0  0  0  0  0  0  0  0  0
   -0.0111    0.9658    0.0074 N   0  0  0  0  0  0  0  0  0  0  0  0
   -3.2724    6.0187    0.0530 C   0  0  0  0  0  0  0  0  0  0  0  0
   -4.3122    5.9667   -0.8659 C   0  0  0  0  0  0  0  0  0  0  0  0
   -5.2955    6.9365   -0.8493 C   0  0  0  0  0  0  0  0  0  0  0  0
   -5.2401    7.9637    0.0748 C   0  0  0  0  0  0  0  0  0  0  0  0
   -4.2031    8.0211    0.9877 C   0  0  0  0  0  0  0  0  0  0  0  0
   -3.2193    7.0517    0.9794 C   0  0  0  0  0  0  0  0  0  0  0  0
   -6.3118    9.0231    0.0866 C   0  0  0  0  0  0  0  0  0  0  0  0
   -6.9422   11.1809   -0.8128 C   0  0  0  0  0  0  0  0  0  0  0  0
   -6.4985   12.3107   -1.7442 C   0  0  0  0  0  0  0  0  0  0  0  0
   -6.4379   11.8252   -3.0868 O   0  0  0  0  0  0  0  0  0  0  0  0
    5.9276    5.2165   -0.7715 H   0  0  0  0  0  0  0  0  0  0  0  0
    5.7637    3.8678   -1.9215 H   0  0  0  0  0  0  0  0  0  0  0  0
    6.0422    5.5203   -2.5216 H   0  0  0  0  0  0  0  0  0  0  0  0
    5.0485    3.4861    0.0061 H   0  0  0  0  0  0  0  0  0  0  0  0
    3.6741    2.2607    1.6359 H   0  0  0  0  0  0  0  0  0  0  0  0
    1.2313    2.5426    1.6522 H   0  0  0  0  0  0  0  0  0  0  0  0
    1.5348    5.2894   -1.6232 H   0  0  0  0  0  0  0  0  0  0  0  0
   -0.4774    6.2639    0.0402 H   0  0  0  0  0  0  0  0  0  0  0  0
   -4.4385    1.0417    0.0288 H   0  0  0  0  0  0  0  0  0  0  0  0
    0.0021   -0.0041    0.0020 H   0  0  0  0  0  0  0  0  0  0  0  0
    0.8223    1.4622    0.0021 H   0  0  0  0  0  0  0  0  0  0  0  0
   -4.3538    5.1670   -1.5905 H   0  0  0  0  0  0  0  0  0  0  0  0
   -6.1067    6.8944   -1.5611 H   0  0  0  0  0  0  0  0  0  0  0  0
   -4.1621    8.8250    1.7078 H   0  0  0  0  0  0  0  0  0  0  0  0
   -2.4095    7.0972    1.6924 H   0  0  0  0  0  0  0  0  0  0  0  0
   -7.2509    8.5938   -0.2625 H   0  0  0  0  0  0  0  0  0  0  0  0
   -6.4395    9.3994    1.1016 H   0  0  0  0  0  0  0  0  0  0  0  0
   -7.8857   10.7666   -1.1681 H   0  0  0  0  0  0  0  0  0  0  0  0
   -7.0742   11.5722    0.1959 H   0  0  0  0  0  0  0  0  0  0  0  0
   -7.2137   13.1313   -1.6864 H   0  0  0  0  0  0  0  0  0  0  0  0
   -5.5133   12.6655   -1.4413 H   0  0  0  0  0  0  0  0  0  0  0  0
   -6.1627   12.4897   -3.7332 H   0  0  0  0  0  0  0  0  0  0  0  0
   -5.9098   10.1274   -0.8048 N   0  3  0  0  0  0  0  0  0  0  0  0
   -5.7875    9.7659   -1.7580 H   0  0  0  0  0  0  0  0  0  0  0  0
   -5.0230   10.5248   -0.4731 H   0  0  0  0  0  0  0  0  0  0  0  0
  1  2  1  0  0  0  0
  1 29  1  0  0  0  0
  1 30  1  0  0  0  0
  1 31  1  0  0  0  0
  2  3  1  0  0  0  0
  3  8  2  0  0  0  0
  3  4  1  0  0  0  0
  4  5  2  0  0  0  0
  4 32  1  0  0  0  0
  5  6  1  0  0  0  0
  5 33  1  0  0  0  0
  6  7  2  0  0  0  0
  6 34  1  0  0  0  0
  7  8  1  0  0  0  0
  7  9  1  0  0  0  0
  8 35  1  0  0  0  0
  9 13  1  0  0  0  0
  9 10  2  0  0  0  0
 10 11  1  0  0  0  0
 10 36  1  0  0  0  0
 11 12  1  0  0  0  0
 11 19  1  0  0  0  0
 12 17  2  0  0  0  0
 12 13  1  0  0  0  0
 13 14  2  0  0  0  0
 14 15  1  0  0  0  0
 14 18  1  0  0  0  0
 15 16  2  0  0  0  0
 16 17  1  0  0  0  0
 16 37  1  0  0  0  0
 18 38  1  0  0  0  0
 18 39  1  0  0  0  0
 19 24  2  0  0  0  0
 19 20  1  0  0  0  0
 20 21  2  0  0  0  0
 20 40  1  0  0  0  0
 21 22  1  0  0  0  0
 21 41  1  0  0  0  0
 22 23  2  0  0  0  0
 22 25  1  0  0  0  0
 23 24  1  0  0  0  0
 23 42  1  0  0  0  0
 24 43  1  0  0  0  0
 25 44  1  0  0  0  0
 25 45  1  0  0  0  0
 25 51  1  0  0  0  0
 26 27  1  0  0  0  0
 26 46  1  0  0  0  0
 26 47  1  0  0  0  0
 26 51  1  0  0  0  0
 27 28  1  0  0  0  0
 27 48  1  0  0  0  0
 27 49  1  0  0  0  0
 28 50  1  0  0  0  0
 51 52  1  0  0  0  0
 51 53  1  0  0  0  0
M  CHG  1  51   1
M  END
$$$$
ZINC03815324
  -OEChem-08230709403D

 59 62  0     1  0  0  0  0  0999 V2000
   -7.2112   11.8468    0.5199 C   0  0  0  0  0  0  0  0  0  0  0  0
   -6.0922   10.1621   -0.8113 C   0  0  0  0  0  0  0  0  0  0  0  0
   -6.6252    9.0080    0.0400 C   0  0  0  0  0  0  0  0  0  0  0  0
   -5.6215    7.8839    0.0474 C   0  0  0  0  0  0  0  0  0  0  0  0
   -4.6391    7.8425    1.0197 C   0  0  0  0  0  0  0  0  0  0  0  0
   -3.7178    6.8136    1.0291 C   0  0  0  0  0  0  0  0  0  0  0  0
   -3.7787    5.8201    0.0609 C   0  0  0  0  0  0  0  0  0  0  0  0
   -4.7631    5.8674   -0.9173 C   0  0  0  0  0  0  0  0  0  0  0  0
   -5.6851    6.8958   -0.9179 C   0  0  0  0  0  0  0  0  0  0  0  0
   -2.8454    4.7755    0.0674 N   0  0  0  0  0  0  0  0  0  0  0  0
   -1.4880    4.9384    0.1491 C   0  0  0  0  0  0  0  0  0  0  0  0
   -0.8819    3.7256    0.1313 C   0  0  0  0  0  0  0  0  0  0  0  0
   -1.9521    2.7241    0.0358 C   0  0  0  0  0  0  0  0  0  0  0  0
   -3.1595    3.4428   -0.0062 C   0  0  0  0  0  0  0  0  0  0  0  0
   -4.3014    2.7631   -0.0979 N   0  0  0  0  0  0  0  0  0  0  0  0
   -4.2985    1.4486   -0.1532 C   0  0  0  0  0  0  0  0  0  0  0  0
   -3.1871    0.7360   -0.1221 N   0  0  0  0  0  0  0  0  0  0  0  0
   -1.9979    1.3255   -0.0317 C   0  0  0  0  0  0  0  0  0  0  0  0
   -0.8356    0.5757    0.0006 N   0  0  0  0  0  0  0  0  0  0  0  0
    0.5751    3.4618    0.2008 C   0  0  0  0  0  0  0  0  0  0  0  0
    1.0754    2.5361    1.1162 C   0  0  0  0  0  0  0  0  0  0  0  0
    2.4323    2.2921    1.1785 C   0  0  0  0  0  0  0  0  0  0  0  0
    3.2988    2.9628    0.3352 C   0  0  0  0  0  0  0  0  0  0  0  0
    2.8091    3.8854   -0.5791 C   0  0  0  0  0  0  0  0  0  0  0  0
    1.4483    4.1336   -0.6519 C   0  0  0  0  0  0  0  0  0  0  0  0
    3.6647    4.5418   -1.4063 O   0  0  0  0  0  0  0  0  0  0  0  0
    5.0542    4.2330   -1.2801 C   0  0  0  0  0  0  0  0  0  0  0  0
   -6.7080   12.2809   -1.8083 C   0  0  0  0  0  0  0  0  0  0  0  0
   -7.0456   11.7747   -3.2121 C   0  0  0  0  0  0  0  0  0  0  0  0
   -8.4594   11.6033   -3.3295 O   0  0  0  0  0  0  0  0  0  0  0  0
   -6.2321   12.1559    0.8856 H   0  0  0  0  0  0  0  0  0  0  0  0
   -7.8700   12.7137    0.4680 H   0  0  0  0  0  0  0  0  0  0  0  0
   -7.6361   11.1078    1.1992 H   0  0  0  0  0  0  0  0  0  0  0  0
   -5.1510   10.5182   -0.3923 H   0  0  0  0  0  0  0  0  0  0  0  0
   -5.9276    9.8153   -1.8315 H   0  0  0  0  0  0  0  0  0  0  0  0
   -7.5664    8.6520   -0.3790 H   0  0  0  0  0  0  0  0  0  0  0  0
   -6.7898    9.3548    1.0602 H   0  0  0  0  0  0  0  0  0  0  0  0
   -4.5920    8.6157    1.7722 H   0  0  0  0  0  0  0  0  0  0  0  0
   -2.9505    6.7820    1.7885 H   0  0  0  0  0  0  0  0  0  0  0  0
   -4.8103    5.0986   -1.6743 H   0  0  0  0  0  0  0  0  0  0  0  0
   -6.4539    6.9305   -1.6756 H   0  0  0  0  0  0  0  0  0  0  0  0
   -0.9781    5.8880    0.2174 H   0  0  0  0  0  0  0  0  0  0  0  0
   -5.2436    0.9313   -0.2276 H   0  0  0  0  0  0  0  0  0  0  0  0
   -0.8815   -0.3923   -0.0428 H   0  0  0  0  0  0  0  0  0  0  0  0
    0.0254    1.0181    0.0627 H   0  0  0  0  0  0  0  0  0  0  0  0
    0.4012    2.0101    1.7758 H   0  0  0  0  0  0  0  0  0  0  0  0
    2.8184    1.5750    1.8878 H   0  0  0  0  0  0  0  0  0  0  0  0
    4.3597    2.7680    0.3877 H   0  0  0  0  0  0  0  0  0  0  0  0
    1.0656    4.8482   -1.3656 H   0  0  0  0  0  0  0  0  0  0  0  0
    5.3878    4.4660   -0.2689 H   0  0  0  0  0  0  0  0  0  0  0  0
    5.2102    3.1727   -1.4789 H   0  0  0  0  0  0  0  0  0  0  0  0
    5.6244    4.8247   -1.9962 H   0  0  0  0  0  0  0  0  0  0  0  0
   -7.2668   13.1950   -1.6076 H   0  0  0  0  0  0  0  0  0  0  0  0
   -5.6395   12.4867   -1.7435 H   0  0  0  0  0  0  0  0  0  0  0  0
   -6.7048   12.4995   -3.9515 H   0  0  0  0  0  0  0  0  0  0  0  0
   -6.5484   10.8199   -3.3834 H   0  0  0  0  0  0  0  0  0  0  0  0
   -8.7463   11.2835   -4.1958 H   0  0  0  0  0  0  0  0  0  0  0  0
   -7.0960   11.2470   -0.8260 N   0  3  2  0  0  0  0  0  0  0  0  0
   -8.0061   10.8556   -1.0957 H   0  0  0  0  0  0  0  0  0  0  0  0
  1 31  1  0  0  0  0
  1 32  1  0  0  0  0
  1 33  1  0  0  0  0
  1 58  1  0  0  0  0
  2  3  1  0  0  0  0
  2 34  1  0  0  0  0
  2 35  1  0  0  0  0
  2 58  1  0  0  0  0
  3  4  1  0  0  0  0
  3 36  1  0  0  0  0
  3 37  1  0  0  0  0
  4  9  2  0  0  0  0
  4  5  1  0  0  0  0
  5  6  2  0  0  0  0
  5 38  1  0  0  0  0
  6  7  1  0  0  0  0
  6 39  1  0  0  0  0
  7  8  2  0  0  0  0
  7 10  1  0  0  0  0
  8  9  1  0  0  0  0
  8 40  1  0  0  0  0
  9 41  1  0  0  0  0
 10 14  1  0  0  0  0
 10 11  1  0  0  0  0
 11 12  2  0  0  0  0
 11 42  1  0  0  0  0
 12 13  1  0  0  0  0
 12 20  1  0  0  0  0
 13 18  2  0  0  0  0
 13 14  1  0  0  0  0
 14 15  2  0  0  0  0
 15 16  1  0  0  0  0
 16 17  2  0  0  0  0
 16 43  1  0  0  0  0
 17 18  1  0  0  0  0
 18 19  1  0  0  0  0
 19 44  1  0  0  0  0
 19 45  1  0  0  0  0
 20 25  2  0  0  0  0
 20 21  1  0  0  0  0
 21 22  2  0  0  0  0
 21 46  1  0  0  0  0
 22 23  1  0  0  0  0
 22 47  1  0  0  0  0
 23 24  2  0  0  0  0
 23 48  1  0  0  0  0
 24 25  1  0  0  0  0
 24 26  1  0  0  0  0
 25 49  1  0  0  0  0
 26 27  1  0  0  0  0
 27 50  1  0  0  0  0
 27 51  1  0  0  0  0
 27 52  1  0  0  0  0
 28 29  1  0  0  0  0
 28 53  1  0  0  0  0
 28 54  1  0  0  0  0
 28 58  1  0  0  0  0
 29 30  1  0  0  0  0
 29 55  1  0  0  0  0
 29 56  1  0  0  0  0
 30 57  1  0  0  0  0
 58 59  1  0  0  0  0
M  CHG  1  58   1
M  END
$$$$
ZINC03815329
  -OEChem-08230709403D

 49 52  0     0  0  0  0  0  0999 V2000
    3.3736    3.6163    0.1121 C   0  0  0  0  0  0  0  0  0  0  0  0
    3.4289    2.1661    0.3125 N   0  0  0  0  0  0  0  0  0  0  0  0
    2.2658    1.4385    0.3323 C   0  0  0  0  0  0  0  0  0  0  0  0
    2.3015    0.0403    0.5239 C   0  0  0  0  0  0  0  0  0  0  0  0
    3.5381   -0.6227    0.6962 C   0  0  0  0  0  0  0  0  0  0  0  0
    4.6934    0.1116    0.6755 C   0  0  0  0  0  0  0  0  0  0  0  0
    4.6210    1.5606    0.4751 C   0  0  0  0  0  0  0  0  0  0  0  0
    5.6441    2.2214    0.4548 O   0  0  0  0  0  0  0  0  0  0  0  0
    6.0052   -0.5536    0.8537 C   0  0  0  0  0  0  0  0  0  0  0  0
    6.5478   -0.7021    2.1306 C   0  0  0  0  0  0  0  0  0  0  0  0
    7.7693   -1.3267    2.2902 C   0  0  0  0  0  0  0  0  0  0  0  0
    8.4588   -1.7963    1.1868 C   0  0  0  0  0  0  0  0  0  0  0  0
    7.9286   -1.6481   -0.0823 C   0  0  0  0  0  0  0  0  0  0  0  0
    6.7060   -1.0293   -0.2553 C   0  0  0  0  0  0  0  0  0  0  0  0
    6.0430   -0.8432   -1.8488 Cl  0  0  0  0  0  0  0  0  0  0  0  0
    5.6870   -0.1080    3.5162 Cl  0  0  0  0  0  0  0  0  0  0  0  0
    1.0896   -0.6663    0.5380 C   0  0  0  0  0  0  0  0  0  0  0  0
   -0.0348    0.0047    0.3716 N   0  0  0  0  0  0  0  0  0  0  0  0
   -0.0302    1.3212    0.1938 C   0  0  0  0  0  0  0  0  0  0  0  0
    1.0876    2.0307    0.1730 N   0  0  0  0  0  0  0  0  0  0  0  0
   -1.2358    1.9733    0.0186 N   0  0  0  0  0  0  0  0  0  0  0  0
   -2.4198    1.2374   -0.0854 C   0  0  0  0  0  0  0  0  0  0  0  0
   -2.4129   -0.0059   -0.7033 C   0  0  0  0  0  0  0  0  0  0  0  0
   -3.5865   -0.7376   -0.8009 C   0  0  0  0  0  0  0  0  0  0  0  0
   -4.7693   -0.2230   -0.2913 C   0  0  0  0  0  0  0  0  0  0  0  0
   -4.7783    1.0216    0.3207 C   0  0  0  0  0  0  0  0  0  0  0  0
   -3.6045    1.7520    0.4241 C   0  0  0  0  0  0  0  0  0  0  0  0
   -5.9378    1.5251    0.8193 O   0  0  0  0  0  0  0  0  0  0  0  0
   -7.1091    0.7187    0.6780 C   0  0  0  0  0  0  0  0  0  0  0  0
   -3.5789   -1.9570   -1.4007 O   0  0  0  0  0  0  0  0  0  0  0  0
   -4.8249   -2.6531   -1.4711 C   0  0  0  0  0  0  0  0  0  0  0  0
    3.2910    4.1137    1.0785 H   0  0  0  0  0  0  0  0  0  0  0  0
    4.2817    3.9484   -0.3910 H   0  0  0  0  0  0  0  0  0  0  0  0
    2.5070    3.8657   -0.5002 H   0  0  0  0  0  0  0  0  0  0  0  0
    3.5709   -1.6922    0.8432 H   0  0  0  0  0  0  0  0  0  0  0  0
    8.1887   -1.4455    3.2783 H   0  0  0  0  0  0  0  0  0  0  0  0
    9.4153   -2.2806    1.3166 H   0  0  0  0  0  0  0  0  0  0  0  0
    8.4721   -2.0167   -0.9397 H   0  0  0  0  0  0  0  0  0  0  0  0
    1.0769   -1.7366    0.6816 H   0  0  0  0  0  0  0  0  0  0  0  0
   -1.2605    2.9416   -0.0323 H   0  0  0  0  0  0  0  0  0  0  0  0
   -1.4928   -0.4048   -1.1042 H   0  0  0  0  0  0  0  0  0  0  0  0
   -5.6840   -0.7917   -0.3712 H   0  0  0  0  0  0  0  0  0  0  0  0
   -3.6115    2.7209    0.9013 H   0  0  0  0  0  0  0  0  0  0  0  0
   -7.9618    1.2364    1.1171 H   0  0  0  0  0  0  0  0  0  0  0  0
   -7.2996    0.5369   -0.3797 H   0  0  0  0  0  0  0  0  0  0  0  0
   -6.9591   -0.2325    1.1888 H   0  0  0  0  0  0  0  0  0  0  0  0
   -5.2026   -2.8248   -0.4632 H   0  0  0  0  0  0  0  0  0  0  0  0
   -5.5438   -2.0555   -2.0317 H   0  0  0  0  0  0  0  0  0  0  0  0
   -4.6787   -3.6099   -1.9723 H   0  0  0  0  0  0  0  0  0  0  0  0
  1  2  1  0  0  0  0
  1 32  1  0  0  0  0
  1 33  1  0  0  0  0
  1 34  1  0  0  0  0
  2  7  1  0  0  0  0
  2  3  1  0  0  0  0
  3 20  2  0  0  0  0
  3  4  1  0  0  0  0
  4  5  1  0  0  0  0
  4 17  2  0  0  0  0
  5  6  2  0  0  0  0
  5 35  1  0  0  0  0
  6  7  1  0  0  0  0
  6  9  1  0  0  0  0
  7  8  2  0  0  0  0
  9 14  2  0  0  0  0
  9 10  1  0  0  0  0
 10 11  2  0  0  0  0
 10 16  1  0  0  0  0
 11 12  1  0  0  0  0
 11 36  1  0  0  0  0
 12 13  2  0  0  0  0
 12 37  1  0  0  0  0
 13 14  1  0  0  0  0
 13 38  1  0  0  0  0
 14 15  1  0  0  0  0
 17 18  1  0  0  0  0
 17 39  1  0  0  0  0
 18 19  2  0  0  0  0
 19 20  1  0  0  0  0
 19 21  1  0  0  0  0
 21 22  1  0  0  0  0
 21 40  1  0  0  0  0
 22 27  2  0  0  0  0
 22 23  1  0  0  0  0
 23 24  2  0  0  0  0
 23 41  1  0  0  0  0
 24 25  1  0  0  0  0
 24 30  1  0  0  0  0
 25 26  2  0  0  0  0
 25 42  1  0  0  0  0
 26 27  1  0  0  0  0
 26 28  1  0  0  0  0
 27 43  1  0  0  0  0
 28 29  1  0  0  0  0
 29 44  1  0  0  0  0
 29 45  1  0  0  0  0
 29 46  1  0  0  0  0
 30 31  1  0  0  0  0
 31 47  1  0  0  0  0
 31 48  1  0  0  0  0
 31 49  1  0  0  0  0
M  END
$$$$
ZINC03815345
  -OEChem-08230709403D

 45 47  0     0  0  0  0  0  0999 V2000
   -4.5485    1.9602   -6.0776 C   0  0  0  0  0  0  0  0  0  0  0  0
   -3.1559    1.3311   -5.9996 C   0  0  0  0  0  0  0  0  0  0  0  0
   -2.2974    1.8479   -7.1558 C   0  0  0  0  0  0  0  0  0  0  0  0
   -3.2778   -0.1910   -6.0954 C   0  0  0  0  0  0  0  0  0  0  0  0
   -2.5280    1.6915   -4.7260 N   0  0  0  0  0  0  0  0  0  0  0  0
   -3.1107    1.3377   -3.5634 C   0  0  0  0  0  0  0  0  0  0  0  0
   -4.1574    0.7195   -3.5715 O   0  0  0  0  0  0  0  0  0  0  0  0
   -2.5330    1.6692   -2.3917 N   0  0  0  0  0  0  0  0  0  0  0  0
   -3.1329    1.3050   -1.1949 C   0  0  0  0  0  0  0  0  0  0  0  0
   -2.5145    1.6602    0.0229 C   0  0  0  0  0  0  0  0  0  0  0  0
   -3.1074    1.2933    1.2204 C   0  0  0  0  0  0  0  0  0  0  0  0
   -4.3186    0.5841    1.1654 C   0  0  0  0  0  0  0  0  0  0  0  0
   -4.9933    0.1754    2.3286 C   0  0  0  0  0  0  0  0  0  0  0  0
   -6.1228   -0.4907    2.1988 N   0  0  0  0  0  0  0  0  0  0  0  0
   -6.6252   -0.7770    0.9997 C   0  0  0  0  0  0  0  0  0  0  0  0
   -6.0348   -0.4190   -0.1247 N   0  0  0  0  0  0  0  0  0  0  0  0
   -4.8821    0.2616   -0.0970 C   0  0  0  0  0  0  0  0  0  0  0  0
   -4.2668    0.6349   -1.2206 N   0  0  0  0  0  0  0  0  0  0  0  0
   -7.8138   -1.4786    0.9296 N   0  0  0  0  0  0  0  0  0  0  0  0
   -1.2380    2.4142    0.0210 C   0  0  0  0  0  0  0  0  0  0  0  0
   -1.2484    3.8090    0.0341 C   0  0  0  0  0  0  0  0  0  0  0  0
   -0.0556    4.5057    0.0264 C   0  0  0  0  0  0  0  0  0  0  0  0
    1.1473    3.8231    0.0117 C   0  0  0  0  0  0  0  0  0  0  0  0
    1.1644    2.4401    0.0040 C   0  0  0  0  0  0  0  0  0  0  0  0
   -0.0215    1.7317    0.0116 C   0  0  0  0  0  0  0  0  0  0  0  0
    0.0021   -0.0041    0.0020 Cl  0  0  0  0  0  0  0  0  0  0  0  0
   -2.7571    4.6675    0.0520 Cl  0  0  0  0  0  0  0  0  0  0  0  0
   -4.4616    3.0446   -6.0093 H   0  0  0  0  0  0  0  0  0  0  0  0
   -5.0157    1.6920   -7.0252 H   0  0  0  0  0  0  0  0  0  0  0  0
   -5.1601    1.5921   -5.2539 H   0  0  0  0  0  0  0  0  0  0  0  0
   -1.3053    1.3997   -7.1002 H   0  0  0  0  0  0  0  0  0  0  0  0
   -2.7646    1.5797   -8.1033 H   0  0  0  0  0  0  0  0  0  0  0  0
   -2.2106    2.9322   -7.0875 H   0  0  0  0  0  0  0  0  0  0  0  0
   -3.8894   -0.5591   -5.2717 H   0  0  0  0  0  0  0  0  0  0  0  0
   -3.7450   -0.4591   -7.0430 H   0  0  0  0  0  0  0  0  0  0  0  0
   -2.2857   -0.6391   -6.0398 H   0  0  0  0  0  0  0  0  0  0  0  0
   -1.6928    2.1848   -4.7195 H   0  0  0  0  0  0  0  0  0  0  0  0
   -1.6978    2.1625   -2.3852 H   0  0  0  0  0  0  0  0  0  0  0  0
   -2.6543    1.5483    2.1670 H   0  0  0  0  0  0  0  0  0  0  0  0
   -4.5950    0.4022    3.3065 H   0  0  0  0  0  0  0  0  0  0  0  0
   -8.1973   -1.6980    0.0661 H   0  0  0  0  0  0  0  0  0  0  0  0
   -8.2645   -1.7516    1.7440 H   0  0  0  0  0  0  0  0  0  0  0  0
   -0.0624    5.5856    0.0323 H   0  0  0  0  0  0  0  0  0  0  0  0
    2.0771    4.3724    0.0058 H   0  0  0  0  0  0  0  0  0  0  0  0
    2.1069    1.9129   -0.0075 H   0  0  0  0  0  0  0  0  0  0  0  0
  1  2  1  0  0  0  0
  1 28  1  0  0  0  0
  1 29  1  0  0  0  0
  1 30  1  0  0  0  0
  2  3  1  0  0  0  0
  2  4  1  0  0  0  0
  2  5  1  0  0  0  0
  3 31  1  0  0  0  0
  3 32  1  0  0  0  0
  3 33  1  0  0  0  0
  4 34  1  0  0  0  0
  4 35  1  0  0  0  0
  4 36  1  0  0  0  0
  5  6  1  0  0  0  0
  5 37  1  0  0  0  0
  6  7  2  0  0  0  0
  6  8  1  0  0  0  0
  8  9  1  0  0  0  0
  8 38  1  0  0  0  0
  9 18  2  0  0  0  0
  9 10  1  0  0  0  0
 10 11  2  0  0  0  0
 10 20  1  0  0  0  0
 11 12  1  0  0  0  0
 11 39  1  0  0  0  0
 12 17  2  0  0  0  0
 12 13  1  0  0  0  0
 13 14  2  0  0  0  0
 13 40  1  0  0  0  0
 14 15  1  0  0  0  0
 15 16  2  0  0  0  0
 15 19  1  0  0  0  0
 16 17  1  0  0  0  0
 17 18  1  0  0  0  0
 19 41  1  0  0  0  0
 19 42  1  0  0  0  0
 20 25  2  0  0  0  0
 20 21  1  0  0  0  0
 21 22  2  0  0  0  0
 21 27  1  0  0  0  0
 22 23  1  0  0  0  0
 22 43  1  0  0  0  0
 23 24  2  0  0  0  0
 23 44  1  0  0  0  0
 24 25  1  0  0  0  0
 24 45  1  0  0  0  0
 25 26  1  0  0  0  0
M  END
$$$$
ZINC03815349
  -OEChem-08230709403D

 44 47  0     0  0  0  0  0  0999 V2000
    1.2198   -2.1877    0.0271 C   0  0  0  0  0  0  0  0  0  0  0  0
    1.2045   -0.6808    0.0223 C   0  0  0  0  0  0  0  0  0  0  0  0
    2.1341    0.0209    0.7678 C   0  0  0  0  0  0  0  0  0  0  0  0
    2.1229    1.4019    0.7657 C   0  0  0  0  0  0  0  0  0  0  0  0
    1.1767    2.0861    0.0133 C   0  0  0  0  0  0  0  0  0  0  0  0
    0.2449    1.3782   -0.7351 C   0  0  0  0  0  0  0  0  0  0  0  0
    0.2612   -0.0028   -0.7279 C   0  0  0  0  0  0  0  0  0  0  0  0
    1.1623    3.4840    0.0092 N   0  0  0  0  0  0  0  0  0  0  0  0
    2.3476    4.1875    0.1060 C   0  0  0  0  0  0  0  0  0  0  0  0
    3.4938    3.5155    0.0896 N   0  0  0  0  0  0  0  0  0  0  0  0
    4.6530    4.1397    0.1791 C   0  0  0  0  0  0  0  0  0  0  0  0
    4.6556    5.5384    0.2928 C   0  0  0  0  0  0  0  0  0  0  0  0
    5.8653    6.2630    0.3917 C   0  0  0  0  0  0  0  0  0  0  0  0
    5.8151    7.6269    0.5004 C   0  0  0  0  0  0  0  0  0  0  0  0
    4.5143    8.2997    0.5121 C   0  0  0  0  0  0  0  0  0  0  0  0
    4.4604    9.5129    0.6086 O   0  0  0  0  0  0  0  0  0  0  0  0
    3.3774    7.5840    0.4164 N   0  0  0  0  0  0  0  0  0  0  0  0
    3.4181    6.2169    0.3067 C   0  0  0  0  0  0  0  0  0  0  0  0
    2.2998    5.5067    0.2062 N   0  0  0  0  0  0  0  0  0  0  0  0
    2.0841    8.2721    0.4292 C   0  0  0  0  0  0  0  0  0  0  0  0
    7.0653    8.4149    0.6052 C   0  0  0  0  0  0  0  0  0  0  0  0
    7.6140    8.6952    1.8572 C   0  0  0  0  0  0  0  0  0  0  0  0
    8.7828    9.4255    1.9477 C   0  0  0  0  0  0  0  0  0  0  0  0
    9.4031    9.8885    0.8012 C   0  0  0  0  0  0  0  0  0  0  0  0
    8.8613    9.6190   -0.4426 C   0  0  0  0  0  0  0  0  0  0  0  0
    7.6960    8.8850   -0.5473 C   0  0  0  0  0  0  0  0  0  0  0  0
    7.0173    8.5483   -2.1093 Cl  0  0  0  0  0  0  0  0  0  0  0  0
    6.8332    8.1212    3.2975 Cl  0  0  0  0  0  0  0  0  0  0  0  0
    0.5824   -2.5550    0.8314 H   0  0  0  0  0  0  0  0  0  0  0  0
    0.8485   -2.5578   -0.9286 H   0  0  0  0  0  0  0  0  0  0  0  0
    2.2395   -2.5402    0.1818 H   0  0  0  0  0  0  0  0  0  0  0  0
    2.8695   -0.5116    1.3526 H   0  0  0  0  0  0  0  0  0  0  0  0
    2.8462    1.9493    1.3519 H   0  0  0  0  0  0  0  0  0  0  0  0
   -0.4918    1.9071   -1.3215 H   0  0  0  0  0  0  0  0  0  0  0  0
   -0.4635   -0.5538   -1.3090 H   0  0  0  0  0  0  0  0  0  0  0  0
    0.3201    3.9601   -0.0615 H   0  0  0  0  0  0  0  0  0  0  0  0
    5.5801    3.5859    0.1646 H   0  0  0  0  0  0  0  0  0  0  0  0
    6.8148    5.7485    0.3816 H   0  0  0  0  0  0  0  0  0  0  0  0
    1.7292    8.3596    1.4561 H   0  0  0  0  0  0  0  0  0  0  0  0
    2.1975    9.2668   -0.0020 H   0  0  0  0  0  0  0  0  0  0  0  0
    1.3634    7.7020   -0.1570 H   0  0  0  0  0  0  0  0  0  0  0  0
    9.2110    9.6394    2.9158 H   0  0  0  0  0  0  0  0  0  0  0  0
   10.3143   10.4632    0.8777 H   0  0  0  0  0  0  0  0  0  0  0  0
    9.3503    9.9837   -1.3339 H   0  0  0  0  0  0  0  0  0  0  0  0
  1  2  1  0  0  0  0
  1 29  1  0  0  0  0
  1 30  1  0  0  0  0
  1 31  1  0  0  0  0
  2  7  2  0  0  0  0
  2  3  1  0  0  0  0
  3  4  2  0  0  0  0
  3 32  1  0  0  0  0
  4  5  1  0  0  0  0
  4 33  1  0  0  0  0
  5  6  2  0  0  0  0
  5  8  1  0  0  0  0
  6  7  1  0  0  0  0
  6 34  1  0  0  0  0
  7 35  1  0  0  0  0
  8  9  1  0  0  0  0
  8 36  1  0  0  0  0
  9 19  2  0  0  0  0
  9 10  1  0  0  0  0
 10 11  2  0  0  0  0
 11 12  1  0  0  0  0
 11 37  1  0  0  0  0
 12 18  2  0  0  0  0
 12 13  1  0  0  0  0
 13 14  2  0  0  0  0
 13 38  1  0  0  0  0
 14 15  1  0  0  0  0
 14 21  1  0  0  0  0
 15 16  2  0  0  0  0
 15 17  1  0  0  0  0
 17 18  1  0  0  0  0
 17 20  1  0  0  0  0
 18 19  1  0  0  0  0
 20 39  1  0  0  0  0
 20 40  1  0  0  0  0
 20 41  1  0  0  0  0
 21 26  2  0  0  0  0
 21 22  1  0  0  0  0
 22 23  2  0  0  0  0
 22 28  1  0  0  0  0
 23 24  1  0  0  0  0
 23 42  1  0  0  0  0
 24 25  2  0  0  0  0
 24 43  1  0  0  0  0
 25 26  1  0  0  0  0
 25 44  1  0  0  0  0
 26 27  1  0  0  0  0
M  END
$$$$
ZINC03815350
  -OEChem-08230709403D

 43 46  0     0  0  0  0  0  0999 V2000
   -4.1948    2.7952    1.5249 C   0  0  0  0  0  0  0  0  0  0  0  0
   -3.6608    3.2387    0.1614 C   0  0  0  0  0  0  0  0  0  0  0  0
   -2.4147    3.9870    0.3449 N   0  0  0  0  0  0  0  0  0  0  0  0
   -1.2157    3.3200    0.3436 C   0  0  0  0  0  0  0  0  0  0  0  0
   -0.0058    4.0261    0.5186 C   0  0  0  0  0  0  0  0  0  0  0  0
   -0.0199    5.4284    0.6969 C   0  0  0  0  0  0  0  0  0  0  0  0
   -1.2211    6.0853    0.6968 C   0  0  0  0  0  0  0  0  0  0  0  0
   -2.4578    5.3227    0.5127 C   0  0  0  0  0  0  0  0  0  0  0  0
   -3.5308    5.8994    0.5108 O   0  0  0  0  0  0  0  0  0  0  0  0
   -1.2695    7.5545    0.8818 C   0  0  0  0  0  0  0  0  0  0  0  0
   -1.3816    8.0962    2.1629 C   0  0  0  0  0  0  0  0  0  0  0  0
   -1.4214    9.4667    2.3288 C   0  0  0  0  0  0  0  0  0  0  0  0
   -1.3609   10.3018    1.2276 C   0  0  0  0  0  0  0  0  0  0  0  0
   -1.2551    9.7711   -0.0454 C   0  0  0  0  0  0  0  0  0  0  0  0
   -1.2090    8.4025   -0.2248 C   0  0  0  0  0  0  0  0  0  0  0  0
   -1.0766    7.7385   -1.8233 Cl  0  0  0  0  0  0  0  0  0  0  0  0
   -1.4649    7.0498    3.5456 Cl  0  0  0  0  0  0  0  0  0  0  0  0
    1.1983    3.3063    0.5105 C   0  0  0  0  0  0  0  0  0  0  0  0
    1.1513    1.9983    0.3395 N   0  0  0  0  0  0  0  0  0  0  0  0
   -0.0062    1.3671    0.1777 C   0  0  0  0  0  0  0  0  0  0  0  0
   -1.1672    2.0036    0.1731 N   0  0  0  0  0  0  0  0  0  0  0  0
    0.0021   -0.0041    0.0020 N   0  0  0  0  0  0  0  0  0  0  0  0
    1.2127   -0.6839   -0.1184 C   0  0  0  0  0  0  0  0  0  0  0  0
    2.3106   -0.0859   -0.7361 C   0  0  0  0  0  0  0  0  0  0  0  0
    3.4921   -0.7909   -0.8314 C   0  0  0  0  0  0  0  0  0  0  0  0
    3.5878   -2.0184   -0.3559 N   0  0  0  0  0  0  0  0  0  0  0  0
    2.5705   -2.6203    0.2311 C   0  0  0  0  0  0  0  0  0  0  0  0
    1.3559   -1.9820    0.3705 C   0  0  0  0  0  0  0  0  0  0  0  0
   -4.3854    3.6723    2.1432 H   0  0  0  0  0  0  0  0  0  0  0  0
   -5.1219    2.2385    1.3884 H   0  0  0  0  0  0  0  0  0  0  0  0
   -3.4576    2.1588    2.0143 H   0  0  0  0  0  0  0  0  0  0  0  0
   -4.3980    3.8751   -0.3281 H   0  0  0  0  0  0  0  0  0  0  0  0
   -3.4702    2.3616   -0.4570 H   0  0  0  0  0  0  0  0  0  0  0  0
    0.9028    5.9732    0.8316 H   0  0  0  0  0  0  0  0  0  0  0  0
   -1.5040    9.8874    3.3201 H   0  0  0  0  0  0  0  0  0  0  0  0
   -1.3970   11.3727    1.3624 H   0  0  0  0  0  0  0  0  0  0  0  0
   -1.2080   10.4286   -0.9010 H   0  0  0  0  0  0  0  0  0  0  0  0
    2.1438    3.8117    0.6409 H   0  0  0  0  0  0  0  0  0  0  0  0
   -0.8347   -0.4930   -0.0374 H   0  0  0  0  0  0  0  0  0  0  0  0
    2.2377    0.9167   -1.1311 H   0  0  0  0  0  0  0  0  0  0  0  0
    4.3487   -0.3343   -1.3049 H   0  0  0  0  0  0  0  0  0  0  0  0
    2.6905   -3.6258    0.6068 H   0  0  0  0  0  0  0  0  0  0  0  0
    0.5272   -2.4805    0.8513 H   0  0  0  0  0  0  0  0  0  0  0  0
  1  2  1  0  0  0  0
  1 29  1  0  0  0  0
  1 30  1  0  0  0  0
  1 31  1  0  0  0  0
  2  3  1  0  0  0  0
  2 32  1  0  0  0  0
  2 33  1  0  0  0  0
  3  8  1  0  0  0  0
  3  4  1  0  0  0  0
  4 21  2  0  0  0  0
  4  5  1  0  0  0  0
  5  6  1  0  0  0  0
  5 18  2  0  0  0  0
  6  7  2  0  0  0  0
  6 34  1  0  0  0  0
  7  8  1  0  0  0  0
  7 10  1  0  0  0  0
  8  9  2  0  0  0  0
 10 15  2  0  0  0  0
 10 11  1  0  0  0  0
 11 12  2  0  0  0  0
 11 17  1  0  0  0  0
 12 13  1  0  0  0  0
 12 35  1  0  0  0  0
 13 14  2  0  0  0  0
 13 36  1  0  0  0  0
 14 15  1  0  0  0  0
 14 37  1  0  0  0  0
 15 16  1  0  0  0  0
 18 19  1  0  0  0  0
 18 38  1  0  0  0  0
 19 20  2  0  0  0  0
 20 21  1  0  0  0  0
 20 22  1  0  0  0  0
 22 23  1  0  0  0  0
 22 39  1  0  0  0  0
 23 28  2  0  0  0  0
 23 24  1  0  0  0  0
 24 25  2  0  0  0  0
 24 40  1  0  0  0  0
 25 26  1  0  0  0  0
 25 41  1  0  0  0  0
 26 27  2  0  0  0  0
 27 28  1  0  0  0  0
 27 42  1  0  0  0  0
 28 43  1  0  0  0  0
M  END
$$$$
ZINC03815351
  -OEChem-08230709403D

 40 43  0     0  0  0  0  0  0999 V2000
   -3.6191    2.9930    0.0509 C   0  0  0  0  0  0  0  0  0  0  0  0
   -2.4356    3.7939    0.0439 O   0  0  0  0  0  0  0  0  0  0  0  0
   -1.2460    3.1368    0.0299 C   0  0  0  0  0  0  0  0  0  0  0  0
   -1.2200    1.7486    0.0173 C   0  0  0  0  0  0  0  0  0  0  0  0
   -0.0126    1.0758    0.0080 C   0  0  0  0  0  0  0  0  0  0  0  0
    1.1746    1.7803    0.0004 C   0  0  0  0  0  0  0  0  0  0  0  0
    1.1574    3.1745    0.0076 C   0  0  0  0  0  0  0  0  0  0  0  0
   -0.0603    3.8520    0.0224 C   0  0  0  0  0  0  0  0  0  0  0  0
    2.4306    3.9337    0.0000 C   0  0  0  0  0  0  0  0  0  0  0  0
    2.7639    4.9492   -0.8343 C   0  0  0  0  0  0  0  0  0  0  0  0
    4.0212    5.3998   -0.5311 N   0  0  0  0  0  0  0  0  0  0  0  0
    4.5458    4.6770    0.5094 C   0  0  0  0  0  0  0  0  0  0  0  0
    3.5805    3.7289    0.8906 C   0  0  0  0  0  0  0  0  0  0  0  0
    3.8742    2.8553    1.9458 C   0  0  0  0  0  0  0  0  0  0  0  0
    5.0582    2.9617    2.5431 N   0  0  0  0  0  0  0  0  0  0  0  0
    5.9372    3.8671    2.1537 C   0  0  0  0  0  0  0  0  0  0  0  0
    5.7031    4.7067    1.1682 N   0  0  0  0  0  0  0  0  0  0  0  0
    2.9556    1.9059    2.3568 N   0  0  0  0  0  0  0  0  0  0  0  0
    4.6793    6.4444   -1.1930 C   0  0  0  0  0  0  0  0  0  0  0  0
    5.2588    7.4743   -0.4639 C   0  0  0  0  0  0  0  0  0  0  0  0
    5.9114    8.5001   -1.1192 C   0  0  0  0  0  0  0  0  0  0  0  0
    5.9781    8.5081   -2.5004 C   0  0  0  0  0  0  0  0  0  0  0  0
    5.3975    7.4866   -3.2295 C   0  0  0  0  0  0  0  0  0  0  0  0
    4.7484    6.4550   -2.5798 C   0  0  0  0  0  0  0  0  0  0  0  0
   -4.4959    3.6404    0.0620 H   0  0  0  0  0  0  0  0  0  0  0  0
   -3.6402    2.3680   -0.8419 H   0  0  0  0  0  0  0  0  0  0  0  0
   -3.6239    2.3596    0.9380 H   0  0  0  0  0  0  0  0  0  0  0  0
   -2.1460    1.1928    0.0190 H   0  0  0  0  0  0  0  0  0  0  0  0
    0.0021   -0.0041    0.0020 H   0  0  0  0  0  0  0  0  0  0  0  0
    2.1163    1.2517   -0.0114 H   0  0  0  0  0  0  0  0  0  0  0  0
   -0.0791    4.9319    0.0277 H   0  0  0  0  0  0  0  0  0  0  0  0
    2.1330    5.3445   -1.6167 H   0  0  0  0  0  0  0  0  0  0  0  0
    6.8868    3.9207    2.6653 H   0  0  0  0  0  0  0  0  0  0  0  0
    2.0957    1.8390    1.9130 H   0  0  0  0  0  0  0  0  0  0  0  0
    3.1715    1.3071    3.0887 H   0  0  0  0  0  0  0  0  0  0  0  0
    5.2028    7.4711    0.6146 H   0  0  0  0  0  0  0  0  0  0  0  0
    6.3658    9.2993   -0.5526 H   0  0  0  0  0  0  0  0  0  0  0  0
    6.4851    9.3136   -3.0108 H   0  0  0  0  0  0  0  0  0  0  0  0
    5.4519    7.4953   -4.3081 H   0  0  0  0  0  0  0  0  0  0  0  0
    4.2954    5.6573   -3.1498 H   0  0  0  0  0  0  0  0  0  0  0  0
  1  2  1  0  0  0  0
  1 25  1  0  0  0  0
  1 26  1  0  0  0  0
  1 27  1  0  0  0  0
  2  3  1  0  0  0  0
  3  8  2  0  0  0  0
  3  4  1  0  0  0  0
  4  5  2  0  0  0  0
  4 28  1  0  0  0  0
  5  6  1  0  0  0  0
  5 29  1  0  0  0  0
  6  7  2  0  0  0  0
  6 30  1  0  0  0  0
  7  8  1  0  0  0  0
  7  9  1  0  0  0  0
  8 31  1  0  0  0  0
  9 13  1  0  0  0  0
  9 10  2  0  0  0  0
 10 11  1  0  0  0  0
 10 32  1  0  0  0  0
 11 12  1  0  0  0  0
 11 19  1  0  0  0  0
 12 17  2  0  0  0  0
 12 13  1  0  0  0  0
 13 14  2  0  0  0  0
 14 15  1  0  0  0  0
 14 18  1  0  0  0  0
 15 16  2  0  0  0  0
 16 17  1  0  0  0  0
 16 33  1  0  0  0  0
 18 34  1  0  0  0  0
 18 35  1  0  0  0  0
 19 24  2  0  0  0  0
 19 20  1  0  0  0  0
 20 21  2  0  0  0  0
 20 36  1  0  0  0  0
 21 22  1  0  0  0  0
 21 37  1  0  0  0  0
 22 23  2  0  0  0  0
 22 38  1  0  0  0  0
 23 24  1  0  0  0  0
 23 39  1  0  0  0  0
 24 40  1  0  0  0  0
M  END
$$$$
ZINC03815352
  -OEChem-08230709403D

 48 50  0     0  0  0  0  0  0999 V2000
    0.2761   -4.2288   -1.6870 C   0  0  0  0  0  0  0  0  0  0  0  0
    1.2581   -5.0071   -0.9999 O   0  0  0  0  0  0  0  0  0  0  0  0
    2.2898   -4.3321   -0.4260 C   0  0  0  0  0  0  0  0  0  0  0  0
    2.3539   -2.9510   -0.5230 C   0  0  0  0  0  0  0  0  0  0  0  0
    3.4074   -2.2618    0.0626 C   0  0  0  0  0  0  0  0  0  0  0  0
    4.4002   -2.9558    0.7411 C   0  0  0  0  0  0  0  0  0  0  0  0
    4.3346   -4.3365    0.8435 C   0  0  0  0  0  0  0  0  0  0  0  0
    3.2804   -5.0271    0.2576 C   0  0  0  0  0  0  0  0  0  0  0  0
    3.2178   -6.3840    0.3537 O   0  0  0  0  0  0  0  0  0  0  0  0
    3.8568   -7.1376   -0.6787 C   0  0  0  0  0  0  0  0  0  0  0  0
    5.3043   -5.0157    1.5125 O   0  0  0  0  0  0  0  0  0  0  0  0
    6.3579   -4.2419    2.0897 C   0  0  0  0  0  0  0  0  0  0  0  0
    3.4717   -0.8671   -0.0362 N   0  0  0  0  0  0  0  0  0  0  0  0
    2.3122   -0.1190   -0.0077 C   0  0  0  0  0  0  0  0  0  0  0  0
    2.3439    1.2788   -0.2267 C   0  0  0  0  0  0  0  0  0  0  0  0
    3.5397    1.9619   -0.4798 C   0  0  0  0  0  0  0  0  0  0  0  0
    3.5171    3.3121   -0.6843 C   0  0  0  0  0  0  0  0  0  0  0  0
    2.3091    4.0227   -0.6437 C   0  0  0  0  0  0  0  0  0  0  0  0
    1.1196    3.3743   -0.3967 C   0  0  0  0  0  0  0  0  0  0  0  0
    1.1194    1.9900   -0.1845 C   0  0  0  0  0  0  0  0  0  0  0  0
   -0.0124    1.3112    0.0606 N   0  0  0  0  0  0  0  0  0  0  0  0
    0.0189    0.0145    0.2567 C   0  0  0  0  0  0  0  0  0  0  0  0
    1.1382   -0.6911    0.2262 N   0  0  0  0  0  0  0  0  0  0  0  0
    2.3122    5.3655   -0.8499 O   0  0  0  0  0  0  0  0  0  0  0  0
    1.0498    6.0330   -0.7960 C   0  0  0  0  0  0  0  0  0  0  0  0
    4.6789    3.9744   -0.9305 O   0  0  0  0  0  0  0  0  0  0  0  0
    5.8764    3.1951   -0.9597 C   0  0  0  0  0  0  0  0  0  0  0  0
   -0.1840   -3.5276   -0.9908 H   0  0  0  0  0  0  0  0  0  0  0  0
    0.7519   -3.6768   -2.4975 H   0  0  0  0  0  0  0  0  0  0  0  0
   -0.4888   -4.8886   -2.0967 H   0  0  0  0  0  0  0  0  0  0  0  0
    1.5840   -2.4107   -1.0538 H   0  0  0  0  0  0  0  0  0  0  0  0
    5.2215   -2.4194    1.1928 H   0  0  0  0  0  0  0  0  0  0  0  0
    3.7321   -8.2024   -0.4815 H   0  0  0  0  0  0  0  0  0  0  0  0
    3.4066   -6.8910   -1.6402 H   0  0  0  0  0  0  0  0  0  0  0  0
    4.9190   -6.8943   -0.7017 H   0  0  0  0  0  0  0  0  0  0  0  0
    6.8752   -3.6899    1.3050 H   0  0  0  0  0  0  0  0  0  0  0  0
    5.9400   -3.5407    2.8121 H   0  0  0  0  0  0  0  0  0  0  0  0
    7.0622   -4.9047    2.5924 H   0  0  0  0  0  0  0  0  0  0  0  0
    4.3312   -0.4262   -0.1247 H   0  0  0  0  0  0  0  0  0  0  0  0
    4.4755    1.4237   -0.5128 H   0  0  0  0  0  0  0  0  0  0  0  0
    0.1935    3.9292   -0.3675 H   0  0  0  0  0  0  0  0  0  0  0  0
   -0.9103   -0.5003    0.4514 H   0  0  0  0  0  0  0  0  0  0  0  0
    0.6043    5.8889    0.1884 H   0  0  0  0  0  0  0  0  0  0  0  0
    1.1940    7.0981   -0.9770 H   0  0  0  0  0  0  0  0  0  0  0  0
    0.3882    5.6212   -1.5580 H   0  0  0  0  0  0  0  0  0  0  0  0
    6.0161    2.7073    0.0050 H   0  0  0  0  0  0  0  0  0  0  0  0
    5.7989    2.4392   -1.7412 H   0  0  0  0  0  0  0  0  0  0  0  0
    6.7275    3.8443   -1.1653 H   0  0  0  0  0  0  0  0  0  0  0  0
  1  2  1  0  0  0  0
  1 28  1  0  0  0  0
  1 29  1  0  0  0  0
  1 30  1  0  0  0  0
  2  3  1  0  0  0  0
  3  8  2  0  0  0  0
  3  4  1  0  0  0  0
  4  5  2  0  0  0  0
  4 31  1  0  0  0  0
  5  6  1  0  0  0  0
  5 13  1  0  0  0  0
  6  7  2  0  0  0  0
  6 32  1  0  0  0  0
  7  8  1  0  0  0  0
  7 11  1  0  0  0  0
  8  9  1  0  0  0  0
  9 10  1  0  0  0  0
 10 33  1  0  0  0  0
 10 34  1  0  0  0  0
 10 35  1  0  0  0  0
 11 12  1  0  0  0  0
 12 36  1  0  0  0  0
 12 37  1  0  0  0  0
 12 38  1  0  0  0  0
 13 14  1  0  0  0  0
 13 39  1  0  0  0  0
 14 23  2  0  0  0  0
 14 15  1  0  0  0  0
 15 20  2  0  0  0  0
 15 16  1  0  0  0  0
 16 17  2  0  0  0  0
 16 40  1  0  0  0  0
 17 18  1  0  0  0  0
 17 26  1  0  0  0  0
 18 19  2  0  0  0  0
 18 24  1  0  0  0  0
 19 20  1  0  0  0  0
 19 41  1  0  0  0  0
 20 21  1  0  0  0  0
 21 22  2  0  0  0  0
 22 23  1  0  0  0  0
 22 42  1  0  0  0  0
 24 25  1  0  0  0  0
 25 43  1  0  0  0  0
 25 44  1  0  0  0  0
 25 45  1  0  0  0  0
 26 27  1  0  0  0  0
 27 46  1  0  0  0  0
 27 47  1  0  0  0  0
 27 48  1  0  0  0  0
M  END
$$$$
ZINC03815354
  -OEChem-08230709403D

 40 43  0     0  0  0  0  0  0999 V2000
   -5.9264    7.2257    0.5000 C   0  0  0  0  0  0  0  0  0  0  0  0
   -4.6527    7.9495    0.4955 N   0  0  0  0  0  0  0  0  0  0  0  0
   -3.4763    7.2531    0.3779 C   0  0  0  0  0  0  0  0  0  0  0  0
   -2.2404    7.9352    0.3714 C   0  0  0  0  0  0  0  0  0  0  0  0
   -2.2047    9.3438    0.4855 C   0  0  0  0  0  0  0  0  0  0  0  0
   -3.3835   10.0302    0.6024 C   0  0  0  0  0  0  0  0  0  0  0  0
   -4.6483    9.2918    0.6063 C   0  0  0  0  0  0  0  0  0  0  0  0
   -5.7017    9.8947    0.7098 O   0  0  0  0  0  0  0  0  0  0  0  0
   -3.3797   11.5068    0.7242 C   0  0  0  0  0  0  0  0  0  0  0  0
   -3.3221   12.1058    1.9832 C   0  0  0  0  0  0  0  0  0  0  0  0
   -3.3150   13.4828    2.0897 C   0  0  0  0  0  0  0  0  0  0  0  0
   -3.3740   14.2678    0.9522 C   0  0  0  0  0  0  0  0  0  0  0  0
   -3.4362   13.6803   -0.2985 C   0  0  0  0  0  0  0  0  0  0  0  0
   -3.4396   12.3044   -0.4191 C   0  0  0  0  0  0  0  0  0  0  0  0
   -3.5188   11.5691   -1.9897 Cl  0  0  0  0  0  0  0  0  0  0  0  0
   -3.2539   11.1224    3.4122 Cl  0  0  0  0  0  0  0  0  0  0  0  0
   -1.0608    7.1856    0.2498 C   0  0  0  0  0  0  0  0  0  0  0  0
   -1.1539    5.8727    0.1514 N   0  0  0  0  0  0  0  0  0  0  0  0
   -2.3352    5.2648    0.1562 C   0  0  0  0  0  0  0  0  0  0  0  0
   -3.4750    5.9293    0.2688 N   0  0  0  0  0  0  0  0  0  0  0  0
   -2.3756    3.8881    0.0453 N   0  0  0  0  0  0  0  0  0  0  0  0
   -1.1869    3.1518    0.0415 C   0  0  0  0  0  0  0  0  0  0  0  0
   -0.0915    3.5739    0.7916 C   0  0  0  0  0  0  0  0  0  0  0  0
    1.0655    2.8137    0.7515 C   0  0  0  0  0  0  0  0  0  0  0  0
    1.0920    1.6641   -0.0164 C   0  0  0  0  0  0  0  0  0  0  0  0
    0.0360    1.2886   -0.7111 N   0  0  0  0  0  0  0  0  0  0  0  0
   -1.0828    1.9855   -0.7054 C   0  0  0  0  0  0  0  0  0  0  0  0
   -6.1903    6.9613    1.5240 H   0  0  0  0  0  0  0  0  0  0  0  0
   -6.7056    7.8590    0.0759 H   0  0  0  0  0  0  0  0  0  0  0  0
   -5.8309    6.3184   -0.0964 H   0  0  0  0  0  0  0  0  0  0  0  0
   -1.2619    9.8705    0.4803 H   0  0  0  0  0  0  0  0  0  0  0  0
   -3.2666   13.9478    3.0633 H   0  0  0  0  0  0  0  0  0  0  0  0
   -3.3720   15.3441    1.0411 H   0  0  0  0  0  0  0  0  0  0  0  0
   -3.4825   14.2988   -1.1827 H   0  0  0  0  0  0  0  0  0  0  0  0
   -0.0966    7.6721    0.2413 H   0  0  0  0  0  0  0  0  0  0  0  0
   -3.2286    3.4324   -0.0299 H   0  0  0  0  0  0  0  0  0  0  0  0
   -0.1419    4.4740    1.3863 H   0  0  0  0  0  0  0  0  0  0  0  0
    1.9356    3.1130    1.3170 H   0  0  0  0  0  0  0  0  0  0  0  0
    1.9904    1.0654   -0.0479 H   0  0  0  0  0  0  0  0  0  0  0  0
   -1.9271    1.6460   -1.2870 H   0  0  0  0  0  0  0  0  0  0  0  0
  1  2  1  0  0  0  0
  1 28  1  0  0  0  0
  1 29  1  0  0  0  0
  1 30  1  0  0  0  0
  2  7  1  0  0  0  0
  2  3  1  0  0  0  0
  3 20  2  0  0  0  0
  3  4  1  0  0  0  0
  4  5  1  0  0  0  0
  4 17  2  0  0  0  0
  5  6  2  0  0  0  0
  5 31  1  0  0  0  0
  6  7  1  0  0  0  0
  6  9  1  0  0  0  0
  7  8  2  0  0  0  0
  9 14  2  0  0  0  0
  9 10  1  0  0  0  0
 10 11  2  0  0  0  0
 10 16  1  0  0  0  0
 11 12  1  0  0  0  0
 11 32  1  0  0  0  0
 12 13  2  0  0  0  0
 12 33  1  0  0  0  0
 13 14  1  0  0  0  0
 13 34  1  0  0  0  0
 14 15  1  0  0  0  0
 17 18  1  0  0  0  0
 17 35  1  0  0  0  0
 18 19  2  0  0  0  0
 19 20  1  0  0  0  0
 19 21  1  0  0  0  0
 21 22  1  0  0  0  0
 21 36  1  0  0  0  0
 22 27  2  0  0  0  0
 22 23  1  0  0  0  0
 23 24  2  0  0  0  0
 23 37  1  0  0  0  0
 24 25  1  0  0  0  0
 24 38  1  0  0  0  0
 25 26  2  0  0  0  0
 25 39  1  0  0  0  0
 26 27  1  0  0  0  0
 27 40  1  0  0  0  0
M  END
$$$$
ZINC03815355
  -OEChem-08230709403D

 55 58  0     0  0  0  0  0  0999 V2000
    0.9123    1.7808    0.7877 C   0  0  0  0  0  0  0  0  0  0  0  0
    0.8983    3.1623    0.7839 C   0  0  0  0  0  0  0  0  0  0  0  0
   -0.0502    3.8460    0.0338 C   0  0  0  0  0  0  0  0  0  0  0  0
   -0.9838    3.1392   -0.7120 C   0  0  0  0  0  0  0  0  0  0  0  0
   -0.9624    1.7536   -0.7103 C   0  0  0  0  0  0  0  0  0  0  0  0
   -0.0159    1.0758    0.0456 C   0  0  0  0  0  0  0  0  0  0  0  0
   -1.8708    1.0587   -1.4444 O   0  0  0  0  0  0  0  0  0  0  0  0
   -1.7935   -0.3672   -1.3913 C   0  0  0  0  0  0  0  0  0  0  0  0
   -2.8878   -0.9704   -2.2742 C   0  0  0  0  0  0  0  0  0  0  0  0
   -2.7107   -0.5426   -3.5943 F   0  0  0  0  0  0  0  0  0  0  0  0
   -2.8122   -2.3664   -2.2222 F   0  0  0  0  0  0  0  0  0  0  0  0
   -0.5400   -0.7837   -1.8523 F   0  0  0  0  0  0  0  0  0  0  0  0
   -1.9707   -0.7950   -0.0712 F   0  0  0  0  0  0  0  0  0  0  0  0
   -0.0643    5.2440    0.0294 N   0  0  0  0  0  0  0  0  0  0  0  0
    1.1244    5.9490    0.1255 C   0  0  0  0  0  0  0  0  0  0  0  0
    2.2715    5.2850    0.1149 N   0  0  0  0  0  0  0  0  0  0  0  0
    3.4290    5.9219    0.1990 C   0  0  0  0  0  0  0  0  0  0  0  0
    3.4363    7.3005    0.3108 C   0  0  0  0  0  0  0  0  0  0  0  0
    2.2106    7.9742    0.3251 C   0  0  0  0  0  0  0  0  0  0  0  0
    1.0851    7.2676    0.2310 N   0  0  0  0  0  0  0  0  0  0  0  0
    2.1648    9.4490    0.4425 C   0  0  0  0  0  0  0  0  0  0  0  0
    3.3418   10.1819    0.5404 C   0  0  0  0  0  0  0  0  0  0  0  0
    3.2969   11.5612    0.6497 C   0  0  0  0  0  0  0  0  0  0  0  0
    2.0908   12.2304    0.6643 C   0  0  0  0  0  0  0  0  0  0  0  0
    0.8972   11.5234    0.5684 C   0  0  0  0  0  0  0  0  0  0  0  0
    0.9296   10.1226    0.4501 C   0  0  0  0  0  0  0  0  0  0  0  0
   -0.4639    9.6902    0.3619 C   0  0  0  0  0  0  0  0  0  0  0  0
   -1.2236   10.7975    0.4224 C   0  0  0  0  0  0  0  0  0  0  0  0
   -0.4276   11.9010    0.5551 N   0  0  0  0  0  0  0  0  0  0  0  0
   -0.9107   13.2808    0.6512 C   0  0  0  0  0  0  0  0  0  0  0  0
   -0.9128   13.9185   -0.7395 C   0  0  0  0  0  0  0  0  0  0  0  0
   -1.4173   15.3594   -0.6391 C   0  0  0  0  0  0  0  0  0  0  0  0
    1.6504    1.2509    1.3714 H   0  0  0  0  0  0  0  0  0  0  0  0
    1.6253    3.7110    1.3642 H   0  0  0  0  0  0  0  0  0  0  0  0
   -1.7225    3.6682   -1.2958 H   0  0  0  0  0  0  0  0  0  0  0  0
   -0.0021   -0.0041    0.0503 H   0  0  0  0  0  0  0  0  0  0  0  0
   -3.8645   -0.6459   -1.9150 H   0  0  0  0  0  0  0  0  0  0  0  0
   -0.9064    5.7203   -0.0408 H   0  0  0  0  0  0  0  0  0  0  0  0
    4.3576    5.3706    0.1849 H   0  0  0  0  0  0  0  0  0  0  0  0
    4.3666    7.8441    0.3850 H   0  0  0  0  0  0  0  0  0  0  0  0
    4.2946    9.6736    0.5309 H   0  0  0  0  0  0  0  0  0  0  0  0
    4.2178   12.1203    0.7249 H   0  0  0  0  0  0  0  0  0  0  0  0
    2.0734   13.3069    0.7502 H   0  0  0  0  0  0  0  0  0  0  0  0
   -0.8163    8.6738    0.2663 H   0  0  0  0  0  0  0  0  0  0  0  0
   -2.3028   10.8122    0.3826 H   0  0  0  0  0  0  0  0  0  0  0  0
   -1.9236   13.2838    1.0539 H   0  0  0  0  0  0  0  0  0  0  0  0
   -0.2558   13.8499    1.3109 H   0  0  0  0  0  0  0  0  0  0  0  0
    0.1001   13.9154   -1.1422 H   0  0  0  0  0  0  0  0  0  0  0  0
   -1.5677   13.3493   -1.3992 H   0  0  0  0  0  0  0  0  0  0  0  0
   -2.4302   15.3625   -0.2365 H   0  0  0  0  0  0  0  0  0  0  0  0
   -0.7623   15.9285    0.0206 H   0  0  0  0  0  0  0  0  0  0  0  0
   -1.7488   16.9245   -1.9349 H   0  0  0  0  0  0  0  0  0  0  0  0
   -0.5039   15.9228   -2.3960 H   0  0  0  0  0  0  0  0  0  0  0  0
   -1.4359   15.9565   -1.9862 N   0  3  0  0  0  0  0  0  0  0  0  0
   -2.0830   15.4263   -2.5815 H   0  0  0  0  0  0  0  0  0  0  0  0
  1  6  2  0  0  0  0
  1  2  1  0  0  0  0
  1 33  1  0  0  0  0
  2  3  2  0  0  0  0
  2 34  1  0  0  0  0
  3  4  1  0  0  0  0
  3 14  1  0  0  0  0
  4  5  2  0  0  0  0
  4 35  1  0  0  0  0
  5  6  1  0  0  0  0
  5  7  1  0  0  0  0
  6 36  1  0  0  0  0
  7  8  1  0  0  0  0
  8  9  1  0  0  0  0
  8 12  1  0  0  0  0
  8 13  1  0  0  0  0
  9 10  1  0  0  0  0
  9 11  1  0  0  0  0
  9 37  1  0  0  0  0
 14 15  1  0  0  0  0
 14 38  1  0  0  0  0
 15 20  2  0  0  0  0
 15 16  1  0  0  0  0
 16 17  2  0  0  0  0
 17 18  1  0  0  0  0
 17 39  1  0  0  0  0
 18 19  2  0  0  0  0
 18 40  1  0  0  0  0
 19 20  1  0  0  0  0
 19 21  1  0  0  0  0
 21 26  2  0  0  0  0
 21 22  1  0  0  0  0
 22 23  2  0  0  0  0
 22 41  1  0  0  0  0
 23 24  1  0  0  0  0
 23 42  1  0  0  0  0
 24 25  2  0  0  0  0
 24 43  1  0  0  0  0
 25 29  1  0  0  0  0
 25 26  1  0  0  0  0
 26 27  1  0  0  0  0
 27 28  2  0  0  0  0
 27 44  1  0  0  0  0
 28 29  1  0  0  0  0
 28 45  1  0  0  0  0
 29 30  1  0  0  0  0
 30 31  1  0  0  0  0
 30 46  1  0  0  0  0
 30 47  1  0  0  0  0
 31 32  1  0  0  0  0
 31 48  1  0  0  0  0
 31 49  1  0  0  0  0
 32 50  1  0  0  0  0
 32 51  1  0  0  0  0
 32 54  1  0  0  0  0
 52 54  1  0  0  0  0
 53 54  1  0  0  0  0
 54 55  1  0  0  0  0
M  CHG  1  54   1
M  END
$$$$
ZINC03815366
  -OEChem-08230709403D

 40 43  0     0  0  0  0  0  0999 V2000
    3.9732    3.6195    0.0048 C   0  0  0  0  0  0  0  0  0  0  0  0
    3.3738    4.4689   -0.9079 C   0  0  0  0  0  0  0  0  0  0  0  0
    2.0036    4.6319   -0.9063 C   0  0  0  0  0  0  0  0  0  0  0  0
    1.2229    3.9385    0.0177 C   0  0  0  0  0  0  0  0  0  0  0  0
    1.8331    3.0880    0.9387 C   0  0  0  0  0  0  0  0  0  0  0  0
    3.2038    2.9289    0.9240 C   0  0  0  0  0  0  0  0  0  0  0  0
   -0.2494    4.1097    0.0250 C   0  0  0  0  0  0  0  0  0  0  0  0
   -0.9291    5.2829    0.0338 C   0  0  0  0  0  0  0  0  0  0  0  0
   -2.2760    5.0342    0.0389 N   0  0  0  0  0  0  0  0  0  0  0  0
   -2.5086    3.6829    0.0334 C   0  0  0  0  0  0  0  0  0  0  0  0
   -1.2577    3.0416    0.0304 C   0  0  0  0  0  0  0  0  0  0  0  0
   -1.2185    1.6412    0.0167 C   0  0  0  0  0  0  0  0  0  0  0  0
   -2.3712    0.9770    0.0186 N   0  0  0  0  0  0  0  0  0  0  0  0
   -3.5254    1.6185    0.0275 C   0  0  0  0  0  0  0  0  0  0  0  0
   -3.6085    2.9315    0.0346 N   0  0  0  0  0  0  0  0  0  0  0  0
   -0.0111    0.9658    0.0074 N   0  0  0  0  0  0  0  0  0  0  0  0
   -3.2725    6.0187    0.0487 C   0  0  0  0  0  0  0  0  0  0  0  0
   -4.3120    5.9657   -0.8708 C   0  0  0  0  0  0  0  0  0  0  0  0
   -5.2957    6.9348   -0.8551 C   0  0  0  0  0  0  0  0  0  0  0  0
   -5.2405    7.9634    0.0678 C   0  0  0  0  0  0  0  0  0  0  0  0
   -4.2041    8.0217    0.9811 C   0  0  0  0  0  0  0  0  0  0  0  0
   -3.2199    7.0525    0.9739 C   0  0  0  0  0  0  0  0  0  0  0  0
   -4.1477    9.1442    1.9850 C   0  0  0  0  0  0  0  0  0  0  0  0
   -3.4090   10.2375    1.4363 O   0  0  0  0  0  0  0  0  0  0  0  0
    5.0459    3.4948   -0.0004 H   0  0  0  0  0  0  0  0  0  0  0  0
    3.9795    5.0051   -1.6234 H   0  0  0  0  0  0  0  0  0  0  0  0
    1.5367    5.2950   -1.6196 H   0  0  0  0  0  0  0  0  0  0  0  0
    1.2339    2.5517    1.6596 H   0  0  0  0  0  0  0  0  0  0  0  0
    3.6772    2.2675    1.6345 H   0  0  0  0  0  0  0  0  0  0  0  0
   -0.4774    6.2639    0.0370 H   0  0  0  0  0  0  0  0  0  0  0  0
   -4.4385    1.0417    0.0287 H   0  0  0  0  0  0  0  0  0  0  0  0
    0.0021   -0.0041    0.0020 H   0  0  0  0  0  0  0  0  0  0  0  0
    0.8223    1.4622    0.0021 H   0  0  0  0  0  0  0  0  0  0  0  0
   -4.3532    5.1653   -1.5946 H   0  0  0  0  0  0  0  0  0  0  0  0
   -6.1063    6.8921   -1.5674 H   0  0  0  0  0  0  0  0  0  0  0  0
   -6.0084    8.7228    0.0750 H   0  0  0  0  0  0  0  0  0  0  0  0
   -2.4105    7.0986    1.6875 H   0  0  0  0  0  0  0  0  0  0  0  0
   -5.1602    9.4719    2.2209 H   0  0  0  0  0  0  0  0  0  0  0  0
   -3.6580    8.7946    2.8939 H   0  0  0  0  0  0  0  0  0  0  0  0
   -3.3321   10.9973    2.0294 H   0  0  0  0  0  0  0  0  0  0  0  0
  1  6  2  0  0  0  0
  1  2  1  0  0  0  0
  1 25  1  0  0  0  0
  2  3  2  0  0  0  0
  2 26  1  0  0  0  0
  3  4  1  0  0  0  0
  3 27  1  0  0  0  0
  4  5  2  0  0  0  0
  4  7  1  0  0  0  0
  5  6  1  0  0  0  0
  5 28  1  0  0  0  0
  6 29  1  0  0  0  0
  7 11  1  0  0  0  0
  7  8  2  0  0  0  0
  8  9  1  0  0  0  0
  8 30  1  0  0  0  0
  9 10  1  0  0  0  0
  9 17  1  0  0  0  0
 10 15  2  0  0  0  0
 10 11  1  0  0  0  0
 11 12  2  0  0  0  0
 12 13  1  0  0  0  0
 12 16  1  0  0  0  0
 13 14  2  0  0  0  0
 14 15  1  0  0  0  0
 14 31  1  0  0  0  0
 16 32  1  0  0  0  0
 16 33  1  0  0  0  0
 17 22  2  0  0  0  0
 17 18  1  0  0  0  0
 18 19  2  0  0  0  0
 18 34  1  0  0  0  0
 19 20  1  0  0  0  0
 19 35  1  0  0  0  0
 20 21  2  0  0  0  0
 20 36  1  0  0  0  0
 21 22  1  0  0  0  0
 21 23  1  0  0  0  0
 22 37  1  0  0  0  0
 23 24  1  0  0  0  0
 23 38  1  0  0  0  0
 23 39  1  0  0  0  0
 24 40  1  0  0  0  0
M  END
$$$$
ZINC03815368
  -OEChem-08230709403D

 51 53  0     0  0  0  0  0  0999 V2000
    4.7452    4.1433    2.4915 C   0  0  0  0  0  0  0  0  0  0  0  0
    5.3689    4.5451    1.1798 C   0  0  0  0  0  0  0  0  0  0  0  0
    6.5375    5.2792    1.1660 C   0  0  0  0  0  0  0  0  0  0  0  0
    7.1078    5.6539   -0.0372 C   0  0  0  0  0  0  0  0  0  0  0  0
    6.5144    5.2909   -1.2329 C   0  0  0  0  0  0  0  0  0  0  0  0
    5.3491    4.5516   -1.2314 C   0  0  0  0  0  0  0  0  0  0  0  0
    4.7698    4.1711   -0.0220 C   0  0  0  0  0  0  0  0  0  0  0  0
    3.5179    3.3767   -0.0138 C   0  0  0  0  0  0  0  0  0  0  0  0
    3.5691    1.9916   -0.0217 C   0  0  0  0  0  0  0  0  0  0  0  0
    2.3540    1.2879   -0.0135 C   0  0  0  0  0  0  0  0  0  0  0  0
    2.3093   -0.1169   -0.0206 C   0  0  0  0  0  0  0  0  0  0  0  0
    1.1319   -0.7082   -0.0125 N   0  0  0  0  0  0  0  0  0  0  0  0
    0.0021   -0.0041    0.0020 C   0  0  0  0  0  0  0  0  0  0  0  0
   -0.0158    1.3152    0.0093 N   0  0  0  0  0  0  0  0  0  0  0  0
    1.1302    2.0077    0.0020 C   0  0  0  0  0  0  0  0  0  0  0  0
    1.1376    3.3417    0.0087 N   0  0  0  0  0  0  0  0  0  0  0  0
    2.2646    4.0243    0.0012 C   0  0  0  0  0  0  0  0  0  0  0  0
    2.2178    5.4108    0.0086 N   0  0  0  0  0  0  0  0  0  0  0  0
    1.0286    6.0449    0.0233 C   0  0  0  0  0  0  0  0  0  0  0  0
   -0.0031    5.4018    0.0301 O   0  0  0  0  0  0  0  0  0  0  0  0
    0.9831    7.3918    0.0305 N   0  0  0  0  0  0  0  0  0  0  0  0
   -0.3096    8.0810    0.0465 C   0  0  0  0  0  0  0  0  0  0  0  0
   -1.0868    7.6782    1.3014 C   0  0  0  0  0  0  0  0  0  0  0  0
   -0.0809    9.5938    0.0519 C   0  0  0  0  0  0  0  0  0  0  0  0
   -1.1110    7.6908   -1.1969 C   0  0  0  0  0  0  0  0  0  0  0  0
   -1.2015   -0.6829    0.0094 N   0  0  0  0  0  0  0  0  0  0  0  0
    4.7044    4.1560   -2.5348 C   0  0  0  0  0  0  0  0  0  0  0  0
    5.1451    3.1785    2.8036 H   0  0  0  0  0  0  0  0  0  0  0  0
    4.9749    4.8937    3.2480 H   0  0  0  0  0  0  0  0  0  0  0  0
    3.6645    4.0671    2.3717 H   0  0  0  0  0  0  0  0  0  0  0  0
    7.0053    5.5651    2.0965 H   0  0  0  0  0  0  0  0  0  0  0  0
    8.0197    6.2325   -0.0432 H   0  0  0  0  0  0  0  0  0  0  0  0
    6.9641    5.5863   -2.1693 H   0  0  0  0  0  0  0  0  0  0  0  0
    4.5145    1.4696   -0.0332 H   0  0  0  0  0  0  0  0  0  0  0  0
    3.2193   -0.6983   -0.0320 H   0  0  0  0  0  0  0  0  0  0  0  0
    3.0410    5.9239    0.0032 H   0  0  0  0  0  0  0  0  0  0  0  0
    1.8063    7.9050    0.0251 H   0  0  0  0  0  0  0  0  0  0  0  0
   -0.5158    7.9563    2.1873 H   0  0  0  0  0  0  0  0  0  0  0  0
   -2.0485    8.1910    1.3133 H   0  0  0  0  0  0  0  0  0  0  0  0
   -1.2496    6.6005    1.2976 H   0  0  0  0  0  0  0  0  0  0  0  0
    0.4728    9.8808   -0.8421 H   0  0  0  0  0  0  0  0  0  0  0  0
   -1.0427   10.1066    0.0638 H   0  0  0  0  0  0  0  0  0  0  0  0
    0.4900    9.8719    0.9378 H   0  0  0  0  0  0  0  0  0  0  0  0
   -1.2739    6.6130   -1.2008 H   0  0  0  0  0  0  0  0  0  0  0  0
   -2.0728    8.2036   -1.1850 H   0  0  0  0  0  0  0  0  0  0  0  0
   -0.5573    7.9777   -2.0909 H   0  0  0  0  0  0  0  0  0  0  0  0
   -2.0366   -0.1895    0.0197 H   0  0  0  0  0  0  0  0  0  0  0  0
   -1.2113   -1.6529    0.0042 H   0  0  0  0  0  0  0  0  0  0  0  0
    3.9981    4.9282   -2.8399 H   0  0  0  0  0  0  0  0  0  0  0  0
    5.4720    4.0428   -3.3003 H   0  0  0  0  0  0  0  0  0  0  0  0
    4.1766    3.2109   -2.4070 H   0  0  0  0  0  0  0  0  0  0  0  0
  1  2  1  0  0  0  0
  1 28  1  0  0  0  0
  1 29  1  0  0  0  0
  1 30  1  0  0  0  0
  2  7  2  0  0  0  0
  2  3  1  0  0  0  0
  3  4  2  0  0  0  0
  3 31  1  0  0  0  0
  4  5  1  0  0  0  0
  4 32  1  0  0  0  0
  5  6  2  0  0  0  0
  5 33  1  0  0  0  0
  6  7  1  0  0  0  0
  6 27  1  0  0  0  0
  7  8  1  0  0  0  0
  8 17  2  0  0  0  0
  8  9  1  0  0  0  0
  9 10  2  0  0  0  0
  9 34  1  0  0  0  0
 10 15  1  0  0  0  0
 10 11  1  0  0  0  0
 11 12  2  0  0  0  0
 11 35  1  0  0  0  0
 12 13  1  0  0  0  0
 13 14  2  0  0  0  0
 13 26  1  0  0  0  0
 14 15  1  0  0  0  0
 15 16  2  0  0  0  0
 16 17  1  0  0  0  0
 17 18  1  0  0  0  0
 18 19  1  0  0  0  0
 18 36  1  0  0  0  0
 19 20  2  0  0  0  0
 19 21  1  0  0  0  0
 21 22  1  0  0  0  0
 21 37  1  0  0  0  0
 22 23  1  0  0  0  0
 22 24  1  0  0  0  0
 22 25  1  0  0  0  0
 23 38  1  0  0  0  0
 23 39  1  0  0  0  0
 23 40  1  0  0  0  0
 24 41  1  0  0  0  0
 24 42  1  0  0  0  0
 24 43  1  0  0  0  0
 25 44  1  0  0  0  0
 25 45  1  0  0  0  0
 25 46  1  0  0  0  0
 26 47  1  0  0  0  0
 26 48  1  0  0  0  0
 27 49  1  0  0  0  0
 27 50  1  0  0  0  0
 27 51  1  0  0  0  0
M  END
$$$$
ZINC03815372
  -OEChem-08230709403D

 41 44  0     0  0  0  0  0  0999 V2000
    0.0686    1.0901    0.1116 C   0  0  0  0  0  0  0  0  0  0  0  0
   -0.4259    1.5832    1.3995 N   0  0  0  0  0  0  0  0  0  0  0  0
   -0.5383    2.9341    1.6115 C   0  0  0  0  0  0  0  0  0  0  0  0
   -1.0177    3.4257    2.8451 C   0  0  0  0  0  0  0  0  0  0  0  0
   -1.3764    2.5288    3.8772 C   0  0  0  0  0  0  0  0  0  0  0  0
   -1.2560    1.1827    3.6583 C   0  0  0  0  0  0  0  0  0  0  0  0
   -0.7604    0.7059    2.3652 C   0  0  0  0  0  0  0  0  0  0  0  0
   -0.6506   -0.4901    2.1619 O   0  0  0  0  0  0  0  0  0  0  0  0
   -1.6232    0.2169    4.7201 C   0  0  0  0  0  0  0  0  0  0  0  0
   -0.6650   -0.2112    5.6398 C   0  0  0  0  0  0  0  0  0  0  0  0
   -1.0149   -1.1086    6.6296 C   0  0  0  0  0  0  0  0  0  0  0  0
   -2.3095   -1.5900    6.7049 C   0  0  0  0  0  0  0  0  0  0  0  0
   -3.2629   -1.1733    5.7934 C   0  0  0  0  0  0  0  0  0  0  0  0
   -2.9273   -0.2729    4.8013 C   0  0  0  0  0  0  0  0  0  0  0  0
   -4.1250    0.2479    3.6577 Cl  0  0  0  0  0  0  0  0  0  0  0  0
    0.9618    0.3871    5.5434 Cl  0  0  0  0  0  0  0  0  0  0  0  0
   -1.1222    4.8138    3.0193 C   0  0  0  0  0  0  0  0  0  0  0  0
   -0.7728    5.6039    2.0214 N   0  0  0  0  0  0  0  0  0  0  0  0
   -0.3302    5.1055    0.8722 C   0  0  0  0  0  0  0  0  0  0  0  0
   -0.2140    3.8034    0.6611 N   0  0  0  0  0  0  0  0  0  0  0  0
    0.0221    5.9779   -0.1398 N   0  0  0  0  0  0  0  0  0  0  0  0
   -0.1982    7.3501    0.0120 C   0  0  0  0  0  0  0  0  0  0  0  0
   -1.3044    7.8034    0.7198 C   0  0  0  0  0  0  0  0  0  0  0  0
   -1.5171    9.1593    0.8718 C   0  0  0  0  0  0  0  0  0  0  0  0
   -0.6360   10.0663    0.3119 C   0  0  0  0  0  0  0  0  0  0  0  0
    0.4641    9.6187   -0.3977 C   0  0  0  0  0  0  0  0  0  0  0  0
    0.6851    8.2628   -0.5493 C   0  0  0  0  0  0  0  0  0  0  0  0
    1.6659   10.8630   -1.1614 Br  0  0  0  0  0  0  0  0  0  0  0  0
    0.0952    0.0006    0.1257 H   0  0  0  0  0  0  0  0  0  0  0  0
    1.0729    1.4758   -0.0637 H   0  0  0  0  0  0  0  0  0  0  0  0
   -0.5942    1.4272   -0.6853 H   0  0  0  0  0  0  0  0  0  0  0  0
   -1.7402    2.8998    4.8239 H   0  0  0  0  0  0  0  0  0  0  0  0
   -0.2751   -1.4382    7.3442 H   0  0  0  0  0  0  0  0  0  0  0  0
   -2.5770   -2.2945    7.4785 H   0  0  0  0  0  0  0  0  0  0  0  0
   -4.2719   -1.5532    5.8573 H   0  0  0  0  0  0  0  0  0  0  0  0
   -1.4807    5.2273    3.9504 H   0  0  0  0  0  0  0  0  0  0  0  0
    0.4222    5.6382   -0.9555 H   0  0  0  0  0  0  0  0  0  0  0  0
   -1.9953    7.0959    1.1539 H   0  0  0  0  0  0  0  0  0  0  0  0
   -2.3751    9.5119    1.4249 H   0  0  0  0  0  0  0  0  0  0  0  0
   -0.8073   11.1263    0.4286 H   0  0  0  0  0  0  0  0  0  0  0  0
    1.5436    7.9136   -1.1039 H   0  0  0  0  0  0  0  0  0  0  0  0
  1  2  1  0  0  0  0
  1 29  1  0  0  0  0
  1 30  1  0  0  0  0
  1 31  1  0  0  0  0
  2  7  1  0  0  0  0
  2  3  1  0  0  0  0
  3 20  2  0  0  0  0
  3  4  1  0  0  0  0
  4  5  1  0  0  0  0
  4 17  2  0  0  0  0
  5  6  2  0  0  0  0
  5 32  1  0  0  0  0
  6  7  1  0  0  0  0
  6  9  1  0  0  0  0
  7  8  2  0  0  0  0
  9 14  2  0  0  0  0
  9 10  1  0  0  0  0
 10 11  2  0  0  0  0
 10 16  1  0  0  0  0
 11 12  1  0  0  0  0
 11 33  1  0  0  0  0
 12 13  2  0  0  0  0
 12 34  1  0  0  0  0
 13 14  1  0  0  0  0
 13 35  1  0  0  0  0
 14 15  1  0  0  0  0
 17 18  1  0  0  0  0
 17 36  1  0  0  0  0
 18 19  2  0  0  0  0
 19 20  1  0  0  0  0
 19 21  1  0  0  0  0
 21 22  1  0  0  0  0
 21 37  1  0  0  0  0
 22 27  2  0  0  0  0
 22 23  1  0  0  0  0
 23 24  2  0  0  0  0
 23 38  1  0  0  0  0
 24 25  1  0  0  0  0
 24 39  1  0  0  0  0
 25 26  2  0  0  0  0
 25 40  1  0  0  0  0
 26 27  1  0  0  0  0
 26 28  1  0  0  0  0
 27 41  1  0  0  0  0
M  END
$$$$
ZINC03815376
  -OEChem-08230709403D

 40 43  0     0  0  0  0  0  0999 V2000
   -0.8019   -5.5009   -0.0181 C   0  0  0  0  0  0  0  0  0  0  0  0
    0.2175   -5.3887   -0.9465 C   0  0  0  0  0  0  0  0  0  0  0  0
    1.0279   -4.2718   -0.9537 C   0  0  0  0  0  0  0  0  0  0  0  0
    0.8180   -3.2556   -0.0225 C   0  0  0  0  0  0  0  0  0  0  0  0
   -0.2070   -3.3772    0.9148 C   0  0  0  0  0  0  0  0  0  0  0  0
   -1.0152   -4.4957    0.9080 C   0  0  0  0  0  0  0  0  0  0  0  0
    1.6851   -2.0534   -0.0251 C   0  0  0  0  0  0  0  0  0  0  0  0
    3.0408   -2.0316   -0.0379 C   0  0  0  0  0  0  0  0  0  0  0  0
    3.4801   -0.7343   -0.0351 N   0  0  0  0  0  0  0  0  0  0  0  0
    2.4136    0.1273   -0.0203 C   0  0  0  0  0  0  0  0  0  0  0  0
    1.2440   -0.6524   -0.0133 C   0  0  0  0  0  0  0  0  0  0  0  0
    0.0021   -0.0041    0.0020 C   0  0  0  0  0  0  0  0  0  0  0  0
   -0.0160    1.3262    0.0093 N   0  0  0  0  0  0  0  0  0  0  0  0
    1.1068    2.0214    0.0023 C   0  0  0  0  0  0  0  0  0  0  0  0
    2.2937    1.4540   -0.0120 N   0  0  0  0  0  0  0  0  0  0  0  0
   -1.1762   -0.7291    0.0089 N   0  0  0  0  0  0  0  0  0  0  0  0
    4.8254   -0.3440   -0.0454 C   0  0  0  0  0  0  0  0  0  0  0  0
    5.2709    0.5927   -0.9686 C   0  0  0  0  0  0  0  0  0  0  0  0
    6.5967    0.9798   -0.9725 C   0  0  0  0  0  0  0  0  0  0  0  0
    7.4825    0.4271   -0.0658 C   0  0  0  0  0  0  0  0  0  0  0  0
    7.0430   -0.5102    0.8511 C   0  0  0  0  0  0  0  0  0  0  0  0
    5.7173   -0.8971    0.8637 C   0  0  0  0  0  0  0  0  0  0  0  0
    8.9296    0.8475   -0.0765 C   0  0  0  0  0  0  0  0  0  0  0  0
    9.6670   -0.0060   -0.9540 O   0  0  0  0  0  0  0  0  0  0  0  0
   -1.4339   -6.3767   -0.0165 H   0  0  0  0  0  0  0  0  0  0  0  0
    0.3791   -6.1765   -1.6674 H   0  0  0  0  0  0  0  0  0  0  0  0
    1.8230   -4.1849   -1.6795 H   0  0  0  0  0  0  0  0  0  0  0  0
   -0.3711   -2.5954    1.6416 H   0  0  0  0  0  0  0  0  0  0  0  0
   -1.8126   -4.5888    1.6305 H   0  0  0  0  0  0  0  0  0  0  0  0
    3.6772   -2.9041   -0.0481 H   0  0  0  0  0  0  0  0  0  0  0  0
    1.0483    3.0998    0.0087 H   0  0  0  0  0  0  0  0  0  0  0  0
   -2.0294   -0.2679    0.0192 H   0  0  0  0  0  0  0  0  0  0  0  0
   -1.1490   -1.6987    0.0035 H   0  0  0  0  0  0  0  0  0  0  0  0
    4.5806    1.0212   -1.6801 H   0  0  0  0  0  0  0  0  0  0  0  0
    6.9428    1.7119   -1.6871 H   0  0  0  0  0  0  0  0  0  0  0  0
    7.7373   -0.9403    1.5577 H   0  0  0  0  0  0  0  0  0  0  0  0
    5.3747   -1.6295    1.5798 H   0  0  0  0  0  0  0  0  0  0  0  0
    9.0061    1.8781   -0.4230 H   0  0  0  0  0  0  0  0  0  0  0  0
    9.3375    0.7718    0.9315 H   0  0  0  0  0  0  0  0  0  0  0  0
   10.6086    0.2070   -1.0104 H   0  0  0  0  0  0  0  0  0  0  0  0
  1  6  2  0  0  0  0
  1  2  1  0  0  0  0
  1 25  1  0  0  0  0
  2  3  2  0  0  0  0
  2 26  1  0  0  0  0
  3  4  1  0  0  0  0
  3 27  1  0  0  0  0
  4  5  2  0  0  0  0
  4  7  1  0  0  0  0
  5  6  1  0  0  0  0
  5 28  1  0  0  0  0
  6 29  1  0  0  0  0
  7 11  1  0  0  0  0
  7  8  2  0  0  0  0
  8  9  1  0  0  0  0
  8 30  1  0  0  0  0
  9 10  1  0  0  0  0
  9 17  1  0  0  0  0
 10 15  2  0  0  0  0
 10 11  1  0  0  0  0
 11 12  2  0  0  0  0
 12 13  1  0  0  0  0
 12 16  1  0  0  0  0
 13 14  2  0  0  0  0
 14 15  1  0  0  0  0
 14 31  1  0  0  0  0
 16 32  1  0  0  0  0
 16 33  1  0  0  0  0
 17 22  2  0  0  0  0
 17 18  1  0  0  0  0
 18 19  2  0  0  0  0
 18 34  1  0  0  0  0
 19 20  1  0  0  0  0
 19 35  1  0  0  0  0
 20 21  2  0  0  0  0
 20 23  1  0  0  0  0
 21 22  1  0  0  0  0
 21 36  1  0  0  0  0
 22 37  1  0  0  0  0
 23 24  1  0  0  0  0
 23 38  1  0  0  0  0
 23 39  1  0  0  0  0
 24 40  1  0  0  0  0
M  END
$$$$
ZINC03815377
  -OEChem-08230709403D

 36 39  0     0  0  0  0  0  0999 V2000
   -5.2407    7.9631    0.0745 C   0  0  0  0  0  0  0  0  0  0  0  0
   -4.2036    8.0208    0.9873 C   0  0  0  0  0  0  0  0  0  0  0  0
   -3.2196    7.0517    0.9790 C   0  0  0  0  0  0  0  0  0  0  0  0
   -3.2724    6.0186    0.0526 C   0  0  0  0  0  0  0  0  0  0  0  0
   -4.3120    5.9666   -0.8664 C   0  0  0  0  0  0  0  0  0  0  0  0
   -5.2961    6.9356   -0.8493 C   0  0  0  0  0  0  0  0  0  0  0  0
   -2.2760    5.0342    0.0416 N   0  0  0  0  0  0  0  0  0  0  0  0
   -0.9291    5.2829    0.0363 C   0  0  0  0  0  0  0  0  0  0  0  0
   -0.2494    4.1097    0.0262 C   0  0  0  0  0  0  0  0  0  0  0  0
   -1.2577    3.0416    0.0304 C   0  0  0  0  0  0  0  0  0  0  0  0
   -2.5086    3.6829    0.0349 C   0  0  0  0  0  0  0  0  0  0  0  0
   -3.6085    2.9315    0.0360 N   0  0  0  0  0  0  0  0  0  0  0  0
   -3.5254    1.6185    0.0280 C   0  0  0  0  0  0  0  0  0  0  0  0
   -2.3712    0.9770    0.0186 N   0  0  0  0  0  0  0  0  0  0  0  0
   -1.2185    1.6412    0.0167 C   0  0  0  0  0  0  0  0  0  0  0  0
   -0.0111    0.9658    0.0074 N   0  0  0  0  0  0  0  0  0  0  0  0
    1.2229    3.9385    0.0179 C   0  0  0  0  0  0  0  0  0  0  0  0
    2.0031    4.6336   -0.9056 C   0  0  0  0  0  0  0  0  0  0  0  0
    3.3733    4.4711   -0.9088 C   0  0  0  0  0  0  0  0  0  0  0  0
    3.9741    3.6205    0.0019 C   0  0  0  0  0  0  0  0  0  0  0  0
    3.2053    2.9273    0.9210 C   0  0  0  0  0  0  0  0  0  0  0  0
    1.8333    3.0867    0.9370 C   0  0  0  0  0  0  0  0  0  0  0  0
    3.9674    1.8615    2.0599 Cl  0  0  0  0  0  0  0  0  0  0  0  0
   -6.0092    8.7219    0.0832 H   0  0  0  0  0  0  0  0  0  0  0  0
   -4.1632    8.8244    1.7078 H   0  0  0  0  0  0  0  0  0  0  0  0
   -2.4100    7.0972    1.6924 H   0  0  0  0  0  0  0  0  0  0  0  0
   -4.3533    5.1670   -1.5912 H   0  0  0  0  0  0  0  0  0  0  0  0
   -6.1072    6.8934   -1.5612 H   0  0  0  0  0  0  0  0  0  0  0  0
   -0.4774    6.2639    0.0403 H   0  0  0  0  0  0  0  0  0  0  0  0
   -4.4385    1.0417    0.0288 H   0  0  0  0  0  0  0  0  0  0  0  0
    0.0021   -0.0041    0.0020 H   0  0  0  0  0  0  0  0  0  0  0  0
    0.8223    1.4622    0.0021 H   0  0  0  0  0  0  0  0  0  0  0  0
    1.5356    5.2982   -1.6170 H   0  0  0  0  0  0  0  0  0  0  0  0
    3.9781    5.0094   -1.6236 H   0  0  0  0  0  0  0  0  0  0  0  0
    5.0470    3.4965   -0.0045 H   0  0  0  0  0  0  0  0  0  0  0  0
    1.2344    2.5493    1.6574 H   0  0  0  0  0  0  0  0  0  0  0  0
  1  6  2  0  0  0  0
  1  2  1  0  0  0  0
  1 24  1  0  0  0  0
  2  3  2  0  0  0  0
  2 25  1  0  0  0  0
  3  4  1  0  0  0  0
  3 26  1  0  0  0  0
  4  5  2  0  0  0  0
  4  7  1  0  0  0  0
  5  6  1  0  0  0  0
  5 27  1  0  0  0  0
  6 28  1  0  0  0  0
  7 11  1  0  0  0  0
  7  8  1  0  0  0  0
  8  9  2  0  0  0  0
  8 29  1  0  0  0  0
  9 10  1  0  0  0  0
  9 17  1  0  0  0  0
 10 15  2  0  0  0  0
 10 11  1  0  0  0  0
 11 12  2  0  0  0  0
 12 13  1  0  0  0  0
 13 14  2  0  0  0  0
 13 30  1  0  0  0  0
 14 15  1  0  0  0  0
 15 16  1  0  0  0  0
 16 31  1  0  0  0  0
 16 32  1  0  0  0  0
 17 22  2  0  0  0  0
 17 18  1  0  0  0  0
 18 19  2  0  0  0  0
 18 33  1  0  0  0  0
 19 20  1  0  0  0  0
 19 34  1  0  0  0  0
 20 21  2  0  0  0  0
 20 35  1  0  0  0  0
 21 22  1  0  0  0  0
 21 23  1  0  0  0  0
 22 36  1  0  0  0  0
M  END
$$$$
ZINC03815378
  -OEChem-08230709403D

 59 62  0     0  0  0  0  0  0999 V2000
   -4.2619   17.2670   -2.7549 C   0  0  0  0  0  0  0  0  0  0  0  0
   -3.9777   15.7668   -2.8529 C   0  0  0  0  0  0  0  0  0  0  0  0
   -3.1608   15.3543   -1.7255 O   0  0  0  0  0  0  0  0  0  0  0  0
   -2.8202   14.0575   -1.6619 C   0  0  0  0  0  0  0  0  0  0  0  0
   -3.1923   13.2924   -2.5199 O   0  0  0  0  0  0  0  0  0  0  0  0
   -1.9737   13.5559   -0.5205 C   0  0  0  0  0  0  0  0  0  0  0  0
   -1.7324   12.0541   -0.6861 C   0  0  0  0  0  0  0  0  0  0  0  0
   -0.8730   11.5448    0.4727 C   0  0  0  0  0  0  0  0  0  0  0  0
   -0.6353   10.0657    0.3096 C   0  0  0  0  0  0  0  0  0  0  0  0
    0.4644    9.6177   -0.3992 C   0  0  0  0  0  0  0  0  0  0  0  0
    0.6854    8.2628   -0.5502 C   0  0  0  0  0  0  0  0  0  0  0  0
   -0.1984    7.3498    0.0109 C   0  0  0  0  0  0  0  0  0  0  0  0
   -1.3048    7.8032    0.7177 C   0  0  0  0  0  0  0  0  0  0  0  0
   -1.5171    9.1594    0.8694 C   0  0  0  0  0  0  0  0  0  0  0  0
    0.0221    5.9776   -0.1405 N   0  0  0  0  0  0  0  0  0  0  0  0
   -0.3308    5.1054    0.8714 C   0  0  0  0  0  0  0  0  0  0  0  0
   -0.7743    5.6040    2.0204 N   0  0  0  0  0  0  0  0  0  0  0  0
   -1.1239    4.8143    3.0182 C   0  0  0  0  0  0  0  0  0  0  0  0
   -1.0186    3.4258    2.8444 C   0  0  0  0  0  0  0  0  0  0  0  0
   -1.3778    2.5291    3.8764 C   0  0  0  0  0  0  0  0  0  0  0  0
   -1.2571    1.1829    3.6579 C   0  0  0  0  0  0  0  0  0  0  0  0
   -0.7607    0.7060    2.3653 C   0  0  0  0  0  0  0  0  0  0  0  0
   -0.6502   -0.4900    2.1623 O   0  0  0  0  0  0  0  0  0  0  0  0
   -0.4261    1.5833    1.3995 N   0  0  0  0  0  0  0  0  0  0  0  0
   -0.5385    2.9342    1.6115 C   0  0  0  0  0  0  0  0  0  0  0  0
   -0.2143    3.8035    0.6607 N   0  0  0  0  0  0  0  0  0  0  0  0
    0.0685    1.0902    0.1117 C   0  0  0  0  0  0  0  0  0  0  0  0
   -1.6250    0.2173    4.7197 C   0  0  0  0  0  0  0  0  0  0  0  0
   -0.6674   -0.2105    5.6401 C   0  0  0  0  0  0  0  0  0  0  0  0
   -1.0180   -1.1071    6.6305 C   0  0  0  0  0  0  0  0  0  0  0  0
   -2.3125   -1.5890    6.7046 C   0  0  0  0  0  0  0  0  0  0  0  0
   -3.2653   -1.1729    5.7921 C   0  0  0  0  0  0  0  0  0  0  0  0
   -2.9291   -0.2726    4.8001 C   0  0  0  0  0  0  0  0  0  0  0  0
   -4.1260    0.2478    3.6556 Cl  0  0  0  0  0  0  0  0  0  0  0  0
    0.9594    0.3880    5.5447 Cl  0  0  0  0  0  0  0  0  0  0  0  0
   -4.7924   17.4763   -1.8259 H   0  0  0  0  0  0  0  0  0  0  0  0
   -3.3208   17.8167   -2.7677 H   0  0  0  0  0  0  0  0  0  0  0  0
   -4.8751   17.5766   -3.6012 H   0  0  0  0  0  0  0  0  0  0  0  0
   -3.4472   15.5574   -3.7818 H   0  0  0  0  0  0  0  0  0  0  0  0
   -4.9188   15.2171   -2.8400 H   0  0  0  0  0  0  0  0  0  0  0  0
   -2.4894   13.7392    0.4222 H   0  0  0  0  0  0  0  0  0  0  0  0
   -1.0178   14.0796   -0.5196 H   0  0  0  0  0  0  0  0  0  0  0  0
   -1.2168   11.8708   -1.6288 H   0  0  0  0  0  0  0  0  0  0  0  0
   -2.6884   11.5304   -0.6870 H   0  0  0  0  0  0  0  0  0  0  0  0
   -1.3886   11.7282    1.4154 H   0  0  0  0  0  0  0  0  0  0  0  0
    0.0829   12.0685    0.4736 H   0  0  0  0  0  0  0  0  0  0  0  0
    1.1513   10.3281   -0.8348 H   0  0  0  0  0  0  0  0  0  0  0  0
    1.5446    7.9136   -1.1035 H   0  0  0  0  0  0  0  0  0  0  0  0
   -1.9961    7.0959    1.1517 H   0  0  0  0  0  0  0  0  0  0  0  0
   -2.3750    9.5125    1.4223 H   0  0  0  0  0  0  0  0  0  0  0  0
    0.4229    5.6378   -0.9559 H   0  0  0  0  0  0  0  0  0  0  0  0
   -1.4830    5.2278    3.9490 H   0  0  0  0  0  0  0  0  0  0  0  0
   -1.7424    2.9003    4.8229 H   0  0  0  0  0  0  0  0  0  0  0  0
    0.0950    0.0006    0.1258 H   0  0  0  0  0  0  0  0  0  0  0  0
    1.0728    1.4758   -0.0636 H   0  0  0  0  0  0  0  0  0  0  0  0
   -0.5943    1.4272   -0.6853 H   0  0  0  0  0  0  0  0  0  0  0  0
   -0.2789   -1.4359    7.3460 H   0  0  0  0  0  0  0  0  0  0  0  0
   -2.5805   -2.2934    7.4782 H   0  0  0  0  0  0  0  0  0  0  0  0
   -4.2741   -1.5532    5.8553 H   0  0  0  0  0  0  0  0  0  0  0  0
  1  2  1  0  0  0  0
  1 36  1  0  0  0  0
  1 37  1  0  0  0  0
  1 38  1  0  0  0  0
  2  3  1  0  0  0  0
  2 39  1  0  0  0  0
  2 40  1  0  0  0  0
  3  4  1  0  0  0  0
  4  5  2  0  0  0  0
  4  6  1  0  0  0  0
  6  7  1  0  0  0  0
  6 41  1  0  0  0  0
  6 42  1  0  0  0  0
  7  8  1  0  0  0  0
  7 43  1  0  0  0  0
  7 44  1  0  0  0  0
  8  9  1  0  0  0  0
  8 45  1  0  0  0  0
  8 46  1  0  0  0  0
  9 14  2  0  0  0  0
  9 10  1  0  0  0  0
 10 11  2  0  0  0  0
 10 47  1  0  0  0  0
 11 12  1  0  0  0  0
 11 48  1  0  0  0  0
 12 13  2  0  0  0  0
 12 15  1  0  0  0  0
 13 14  1  0  0  0  0
 13 49  1  0  0  0  0
 14 50  1  0  0  0  0
 15 16  1  0  0  0  0
 15 51  1  0  0  0  0
 16 26  2  0  0  0  0
 16 17  1  0  0  0  0
 17 18  2  0  0  0  0
 18 19  1  0  0  0  0
 18 52  1  0  0  0  0
 19 25  2  0  0  0  0
 19 20  1  0  0  0  0
 20 21  2  0  0  0  0
 20 53  1  0  0  0  0
 21 22  1  0  0  0  0
 21 28  1  0  0  0  0
 22 23  2  0  0  0  0
 22 24  1  0  0  0  0
 24 25  1  0  0  0  0
 24 27  1  0  0  0  0
 25 26  1  0  0  0  0
 27 54  1  0  0  0  0
 27 55  1  0  0  0  0
 27 56  1  0  0  0  0
 28 33  2  0  0  0  0
 28 29  1  0  0  0  0
 29 30  2  0  0  0  0
 29 35  1  0  0  0  0
 30 31  1  0  0  0  0
 30 57  1  0  0  0  0
 31 32  2  0  0  0  0
 31 58  1  0  0  0  0
 32 33  1  0  0  0  0
 32 59  1  0  0  0  0
 33 34  1  0  0  0  0
M  END
$$$$
ZINC03815379
  -OEChem-08230709403D

 75 79  0     0  0  0  0  0  0999 V2000
   17.6153   -0.7836   -1.7674 C   0  0  0  0  0  0  0  0  0  0  0  0
   16.6203   -2.6587   -0.6017 C   0  0  0  0  0  0  0  0  0  0  0  0
   15.5490   -3.7472   -0.7019 C   0  0  0  0  0  0  0  0  0  0  0  0
   14.1571   -2.2571   -2.0061 C   0  0  0  0  0  0  0  0  0  0  0  0
   15.2284   -1.1687   -1.9060 C   0  0  0  0  0  0  0  0  0  0  0  0
   13.1620   -4.1322   -0.8404 C   0  0  0  0  0  0  0  0  0  0  0  0
   11.8009   -3.4458   -0.7102 C   0  0  0  0  0  0  0  0  0  0  0  0
   10.6933   -4.5011   -0.7338 C   0  0  0  0  0  0  0  0  0  0  0  0
    9.3899   -3.8439   -0.6091 N   0  0  0  0  0  0  0  0  0  0  0  0
    8.2326   -4.5993   -0.6058 C   0  0  0  0  0  0  0  0  0  0  0  0
    8.3336   -5.9221   -0.7171 N   0  0  0  0  0  0  0  0  0  0  0  0
    7.2657   -6.6941   -0.7205 C   0  0  0  0  0  0  0  0  0  0  0  0
    6.0019   -6.0908   -0.6024 C   0  0  0  0  0  0  0  0  0  0  0  0
    4.8170   -6.8450   -0.5980 C   0  0  0  0  0  0  0  0  0  0  0  0
    3.6151   -6.1659   -0.4776 C   0  0  0  0  0  0  0  0  0  0  0  0
    3.6214   -4.7591   -0.3651 C   0  0  0  0  0  0  0  0  0  0  0  0
    4.7461   -4.0733   -0.3767 N   0  0  0  0  0  0  0  0  0  0  0  0
    5.9306   -4.6779   -0.4851 C   0  0  0  0  0  0  0  0  0  0  0  0
    7.0732   -3.9798   -0.4922 N   0  0  0  0  0  0  0  0  0  0  0  0
    2.4159   -4.0829   -0.2453 N   0  0  0  0  0  0  0  0  0  0  0  0
    2.4047   -2.7396   -0.1368 C   0  0  0  0  0  0  0  0  0  0  0  0
    3.4509   -2.1204   -0.1441 O   0  0  0  0  0  0  0  0  0  0  0  0
    1.2336   -2.0827   -0.0204 N   0  0  0  0  0  0  0  0  0  0  0  0
    1.2132   -0.6815   -0.0198 C   0  0  0  0  0  0  0  0  0  0  0  0
    2.1374    0.0268   -0.7760 C   0  0  0  0  0  0  0  0  0  0  0  0
    2.1165    1.4076   -0.7753 C   0  0  0  0  0  0  0  0  0  0  0  0
    1.1724    2.0869   -0.0194 C   0  0  0  0  0  0  0  0  0  0  0  0
    0.2487    1.3798    0.7363 C   0  0  0  0  0  0  0  0  0  0  0  0
    0.2686   -0.0010    0.7366 C   0  0  0  0  0  0  0  0  0  0  0  0
    1.1526    3.4465   -0.0188 O   0  0  0  0  0  0  0  0  0  0  0  0
    0.1534    4.0805    0.7823 C   0  0  0  0  0  0  0  0  0  0  0  0
    2.3334   -6.9109   -0.4667 C   0  0  0  0  0  0  0  0  0  0  0  0
    1.6588   -7.1615   -1.6616 C   0  0  0  0  0  0  0  0  0  0  0  0
    0.4677   -7.8608   -1.6452 C   0  0  0  0  0  0  0  0  0  0  0  0
   -0.0618   -8.3027   -0.4463 C   0  0  0  0  0  0  0  0  0  0  0  0
    0.5994   -8.0524    0.7426 C   0  0  0  0  0  0  0  0  0  0  0  0
    1.7942   -7.3592    0.7391 C   0  0  0  0  0  0  0  0  0  0  0  0
    2.6226   -7.0462    2.2322 Cl  0  0  0  0  0  0  0  0  0  0  0  0
    2.3181   -6.6015   -3.1667 Cl  0  0  0  0  0  0  0  0  0  0  0  0
   18.5870   -1.2771   -1.7491 H   0  0  0  0  0  0  0  0  0  0  0  0
   17.5415   -0.1595   -2.6580 H   0  0  0  0  0  0  0  0  0  0  0  0
   17.5065   -0.1624   -0.8784 H   0  0  0  0  0  0  0  0  0  0  0  0
   16.4476   -2.0597    0.2924 H   0  0  0  0  0  0  0  0  0  0  0  0
   17.6052   -3.1221   -0.5444 H   0  0  0  0  0  0  0  0  0  0  0  0
   15.5788   -4.3701    0.1920 H   0  0  0  0  0  0  0  0  0  0  0  0
   15.7375   -4.3631   -1.5812 H   0  0  0  0  0  0  0  0  0  0  0  0
   14.3297   -2.8561   -2.9003 H   0  0  0  0  0  0  0  0  0  0  0  0
   13.1721   -1.7938   -2.0631 H   0  0  0  0  0  0  0  0  0  0  0  0
   15.0399   -0.5527   -1.0266 H   0  0  0  0  0  0  0  0  0  0  0  0
   15.1987   -0.5454   -2.7997 H   0  0  0  0  0  0  0  0  0  0  0  0
   13.3013   -4.8236   -0.0094 H   0  0  0  0  0  0  0  0  0  0  0  0
   13.2035   -4.6815   -1.7810 H   0  0  0  0  0  0  0  0  0  0  0  0
   11.6616   -2.7544   -1.5413 H   0  0  0  0  0  0  0  0  0  0  0  0
   11.7594   -2.8965    0.2303 H   0  0  0  0  0  0  0  0  0  0  0  0
   10.8325   -5.1925    0.0973 H   0  0  0  0  0  0  0  0  0  0  0  0
   10.7347   -5.0504   -1.6743 H   0  0  0  0  0  0  0  0  0  0  0  0
    9.3392   -2.8785   -0.5289 H   0  0  0  0  0  0  0  0  0  0  0  0
    7.3596   -7.7661   -0.8117 H   0  0  0  0  0  0  0  0  0  0  0  0
    4.8419   -7.9212   -0.6854 H   0  0  0  0  0  0  0  0  0  0  0  0
    1.5812   -4.5770   -0.2395 H   0  0  0  0  0  0  0  0  0  0  0  0
    0.4049   -2.5799    0.0630 H   0  0  0  0  0  0  0  0  0  0  0  0
    2.8727   -0.5019   -1.3643 H   0  0  0  0  0  0  0  0  0  0  0  0
    2.8381    1.9588   -1.3600 H   0  0  0  0  0  0  0  0  0  0  0  0
   -0.4860    1.9093    1.3247 H   0  0  0  0  0  0  0  0  0  0  0  0
   -0.4508   -0.5514    1.3247 H   0  0  0  0  0  0  0  0  0  0  0  0
    0.2487    5.1626    0.6929 H   0  0  0  0  0  0  0  0  0  0  0  0
   -0.8350    3.7734    0.4406 H   0  0  0  0  0  0  0  0  0  0  0  0
    0.2844    3.7890    1.8244 H   0  0  0  0  0  0  0  0  0  0  0  0
   -0.0532   -8.0596   -2.5702 H   0  0  0  0  0  0  0  0  0  0  0  0
   -0.9957   -8.8451   -0.4383 H   0  0  0  0  0  0  0  0  0  0  0  0
    0.1808   -8.4001    1.6755 H   0  0  0  0  0  0  0  0  0  0  0  0
   16.5551   -1.8132   -1.8124 N   0  3  0  0  0  0  0  0  0  0  0  0
   16.6985   -2.4037   -2.6401 H   0  0  0  0  0  0  0  0  0  0  0  0
   14.2222   -3.1026   -0.7954 N   0  3  0  0  0  0  0  0  0  0  0  0
   14.0789   -2.5122    0.0323 H   0  0  0  0  0  0  0  0  0  0  0  0
  1 40  1  0  0  0  0
  1 41  1  0  0  0  0
  1 42  1  0  0  0  0
  1 72  1  0  0  0  0
  2  3  1  0  0  0  0
  2 43  1  0  0  0  0
  2 44  1  0  0  0  0
  2 72  1  0  0  0  0
  3 45  1  0  0  0  0
  3 46  1  0  0  0  0
  3 74  1  0  0  0  0
  4  5  1  0  0  0  0
  4 47  1  0  0  0  0
  4 48  1  0  0  0  0
  4 74  1  0  0  0  0
  5 49  1  0  0  0  0
  5 50  1  0  0  0  0
  5 72  1  0  0  0  0
  6  7  1  0  0  0  0
  6 51  1  0  0  0  0
  6 52  1  0  0  0  0
  6 74  1  0  0  0  0
  7  8  1  0  0  0  0
  7 53  1  0  0  0  0
  7 54  1  0  0  0  0
  8  9  1  0  0  0  0
  8 55  1  0  0  0  0
  8 56  1  0  0  0  0
  9 10  1  0  0  0  0
  9 57  1  0  0  0  0
 10 19  2  0  0  0  0
 10 11  1  0  0  0  0
 11 12  2  0  0  0  0
 12 13  1  0  0  0  0
 12 58  1  0  0  0  0
 13 18  2  0  0  0  0
 13 14  1  0  0  0  0
 14 15  2  0  0  0  0
 14 59  1  0  0  0  0
 15 16  1  0  0  0  0
 15 32  1  0  0  0  0
 16 17  2  0  0  0  0
 16 20  1  0  0  0  0
 17 18  1  0  0  0  0
 18 19  1  0  0  0  0
 20 21  1  0  0  0  0
 20 60  1  0  0  0  0
 21 22  2  0  0  0  0
 21 23  1  0  0  0  0
 23 24  1  0  0  0  0
 23 61  1  0  0  0  0
 24 29  2  0  0  0  0
 24 25  1  0  0  0  0
 25 26  2  0  0  0  0
 25 62  1  0  0  0  0
 26 27  1  0  0  0  0
 26 63  1  0  0  0  0
 27 28  2  0  0  0  0
 27 30  1  0  0  0  0
 28 29  1  0  0  0  0
 28 64  1  0  0  0  0
 29 65  1  0  0  0  0
 30 31  1  0  0  0  0
 31 66  1  0  0  0  0
 31 67  1  0  0  0  0
 31 68  1  0  0  0  0
 32 37  2  0  0  0  0
 32 33  1  0  0  0  0
 33 34  2  0  0  0  0
 33 39  1  0  0  0  0
 34 35  1  0  0  0  0
 34 69  1  0  0  0  0
 35 36  2  0  0  0  0
 35 70  1  0  0  0  0
 36 37  1  0  0  0  0
 36 71  1  0  0  0  0
 37 38  1  0  0  0  0
 72 73  1  0  0  0  0
 74 75  1  0  0  0  0
M  CHG  2  72   1  74   1
M  END
$$$$
ZINC03815390
  -OEChem-08230709403D

 54 57  0     0  0  0  0  0  0999 V2000
    5.5524    4.9236   -1.7521 C   0  0  0  0  0  0  0  0  0  0  0  0
    4.1411    5.1416   -1.8066 O   0  0  0  0  0  0  0  0  0  0  0  0
    3.3775    4.4674   -0.9071 C   0  0  0  0  0  0  0  0  0  0  0  0
    3.9760    3.6131    0.0094 C   0  0  0  0  0  0  0  0  0  0  0  0
    3.2035    2.9245    0.9257 C   0  0  0  0  0  0  0  0  0  0  0  0
    1.8321    3.0823    0.9352 C   0  0  0  0  0  0  0  0  0  0  0  0
    1.2230    3.9385    0.0187 C   0  0  0  0  0  0  0  0  0  0  0  0
    2.0021    4.6284   -0.9082 C   0  0  0  0  0  0  0  0  0  0  0  0
   -0.2494    4.1097    0.0263 C   0  0  0  0  0  0  0  0  0  0  0  0
   -0.9291    5.2829    0.0364 C   0  0  0  0  0  0  0  0  0  0  0  0
   -2.2759    5.0342    0.0416 N   0  0  0  0  0  0  0  0  0  0  0  0
   -2.5086    3.6829    0.0349 C   0  0  0  0  0  0  0  0  0  0  0  0
   -1.2577    3.0416    0.0304 C   0  0  0  0  0  0  0  0  0  0  0  0
   -1.2185    1.6412    0.0167 C   0  0  0  0  0  0  0  0  0  0  0  0
   -2.3712    0.9770    0.0186 N   0  0  0  0  0  0  0  0  0  0  0  0
   -3.5254    1.6185    0.0280 C   0  0  0  0  0  0  0  0  0  0  0  0
   -3.6085    2.9315    0.0360 N   0  0  0  0  0  0  0  0  0  0  0  0
   -0.0111    0.9658    0.0074 N   0  0  0  0  0  0  0  0  0  0  0  0
   -3.2724    6.0187    0.0530 C   0  0  0  0  0  0  0  0  0  0  0  0
   -4.3122    5.9667   -0.8659 C   0  0  0  0  0  0  0  0  0  0  0  0
   -5.2955    6.9365   -0.8493 C   0  0  0  0  0  0  0  0  0  0  0  0
   -5.2401    7.9637    0.0748 C   0  0  0  0  0  0  0  0  0  0  0  0
   -4.2031    8.0211    0.9877 C   0  0  0  0  0  0  0  0  0  0  0  0
   -3.2193    7.0517    0.9794 C   0  0  0  0  0  0  0  0  0  0  0  0
   -6.3118    9.0231    0.0866 C   0  0  0  0  0  0  0  0  0  0  0  0
   -5.9087   10.1556   -0.8221 C   0  0  0  0  0  0  0  0  0  0  0  0
   -4.8549   10.1073   -1.4205 O   0  0  0  0  0  0  0  0  0  0  0  0
   -6.7193   11.2222   -0.9699 N   0  0  0  0  0  0  0  0  0  0  0  0
   -6.3274   12.3232   -1.8533 C   0  0  0  0  0  0  0  0  0  0  0  0
   -7.4155   13.3988   -1.8413 C   0  0  0  0  0  0  0  0  0  0  0  0
   -7.5023   13.9740   -0.5360 O   0  0  0  0  0  0  0  0  0  0  0  0
    5.9276    5.2165   -0.7715 H   0  0  0  0  0  0  0  0  0  0  0  0
    5.7637    3.8678   -1.9215 H   0  0  0  0  0  0  0  0  0  0  0  0
    6.0422    5.5203   -2.5216 H   0  0  0  0  0  0  0  0  0  0  0  0
    5.0485    3.4861    0.0061 H   0  0  0  0  0  0  0  0  0  0  0  0
    3.6741    2.2607    1.6359 H   0  0  0  0  0  0  0  0  0  0  0  0
    1.2313    2.5426    1.6522 H   0  0  0  0  0  0  0  0  0  0  0  0
    1.5348    5.2894   -1.6232 H   0  0  0  0  0  0  0  0  0  0  0  0
   -0.4774    6.2639    0.0402 H   0  0  0  0  0  0  0  0  0  0  0  0
   -4.4385    1.0417    0.0288 H   0  0  0  0  0  0  0  0  0  0  0  0
    0.0021   -0.0041    0.0020 H   0  0  0  0  0  0  0  0  0  0  0  0
    0.8223    1.4622    0.0021 H   0  0  0  0  0  0  0  0  0  0  0  0
   -4.3538    5.1670   -1.5905 H   0  0  0  0  0  0  0  0  0  0  0  0
   -6.1067    6.8944   -1.5611 H   0  0  0  0  0  0  0  0  0  0  0  0
   -4.1621    8.8250    1.7078 H   0  0  0  0  0  0  0  0  0  0  0  0
   -2.4095    7.0972    1.6924 H   0  0  0  0  0  0  0  0  0  0  0  0
   -7.2509    8.5938   -0.2625 H   0  0  0  0  0  0  0  0  0  0  0  0
   -6.4395    9.3994    1.1016 H   0  0  0  0  0  0  0  0  0  0  0  0
   -7.5621   11.2609   -0.4913 H   0  0  0  0  0  0  0  0  0  0  0  0
   -5.3883   12.7525   -1.5042 H   0  0  0  0  0  0  0  0  0  0  0  0
   -6.1998   11.9469   -2.8683 H   0  0  0  0  0  0  0  0  0  0  0  0
   -7.1668   14.1753   -2.5647 H   0  0  0  0  0  0  0  0  0  0  0  0
   -8.3731   12.9498   -2.1049 H   0  0  0  0  0  0  0  0  0  0  0  0
   -8.1735   14.6653   -0.4547 H   0  0  0  0  0  0  0  0  0  0  0  0
  1  2  1  0  0  0  0
  1 32  1  0  0  0  0
  1 33  1  0  0  0  0
  1 34  1  0  0  0  0
  2  3  1  0  0  0  0
  3  8  2  0  0  0  0
  3  4  1  0  0  0  0
  4  5  2  0  0  0  0
  4 35  1  0  0  0  0
  5  6  1  0  0  0  0
  5 36  1  0  0  0  0
  6  7  2  0  0  0  0
  6 37  1  0  0  0  0
  7  8  1  0  0  0  0
  7  9  1  0  0  0  0
  8 38  1  0  0  0  0
  9 13  1  0  0  0  0
  9 10  2  0  0  0  0
 10 11  1  0  0  0  0
 10 39  1  0  0  0  0
 11 12  1  0  0  0  0
 11 19  1  0  0  0  0
 12 17  2  0  0  0  0
 12 13  1  0  0  0  0
 13 14  2  0  0  0  0
 14 15  1  0  0  0  0
 14 18  1  0  0  0  0
 15 16  2  0  0  0  0
 16 17  1  0  0  0  0
 16 40  1  0  0  0  0
 18 41  1  0  0  0  0
 18 42  1  0  0  0  0
 19 24  2  0  0  0  0
 19 20  1  0  0  0  0
 20 21  2  0  0  0  0
 20 43  1  0  0  0  0
 21 22  1  0  0  0  0
 21 44  1  0  0  0  0
 22 23  2  0  0  0  0
 22 25  1  0  0  0  0
 23 24  1  0  0  0  0
 23 45  1  0  0  0  0
 24 46  1  0  0  0  0
 25 26  1  0  0  0  0
 25 47  1  0  0  0  0
 25 48  1  0  0  0  0
 26 27  2  0  0  0  0
 26 28  1  0  0  0  0
 28 29  1  0  0  0  0
 28 49  1  0  0  0  0
 29 30  1  0  0  0  0
 29 50  1  0  0  0  0
 29 51  1  0  0  0  0
 30 31  1  0  0  0  0
 30 52  1  0  0  0  0
 30 53  1  0  0  0  0
 31 54  1  0  0  0  0
M  END
$$$$
ZINC03815391
  -OEChem-08230709403D

 44 47  0     0  0  0  0  0  0999 V2000
    5.5524    4.9236   -1.7521 C   0  0  0  0  0  0  0  0  0  0  0  0
    4.1411    5.1416   -1.8066 O   0  0  0  0  0  0  0  0  0  0  0  0
    3.3775    4.4674   -0.9071 C   0  0  0  0  0  0  0  0  0  0  0  0
    3.9760    3.6131    0.0094 C   0  0  0  0  0  0  0  0  0  0  0  0
    3.2035    2.9245    0.9257 C   0  0  0  0  0  0  0  0  0  0  0  0
    1.8321    3.0823    0.9352 C   0  0  0  0  0  0  0  0  0  0  0  0
    1.2230    3.9385    0.0187 C   0  0  0  0  0  0  0  0  0  0  0  0
    2.0021    4.6284   -0.9082 C   0  0  0  0  0  0  0  0  0  0  0  0
   -0.2494    4.1097    0.0263 C   0  0  0  0  0  0  0  0  0  0  0  0
   -0.9291    5.2829    0.0364 C   0  0  0  0  0  0  0  0  0  0  0  0
   -2.2759    5.0342    0.0416 N   0  0  0  0  0  0  0  0  0  0  0  0
   -2.5086    3.6829    0.0349 C   0  0  0  0  0  0  0  0  0  0  0  0
   -1.2577    3.0416    0.0304 C   0  0  0  0  0  0  0  0  0  0  0  0
   -1.2185    1.6412    0.0167 C   0  0  0  0  0  0  0  0  0  0  0  0
   -2.3712    0.9770    0.0186 N   0  0  0  0  0  0  0  0  0  0  0  0
   -3.5254    1.6185    0.0280 C   0  0  0  0  0  0  0  0  0  0  0  0
   -3.6085    2.9315    0.0360 N   0  0  0  0  0  0  0  0  0  0  0  0
   -0.0111    0.9658    0.0074 N   0  0  0  0  0  0  0  0  0  0  0  0
   -3.2724    6.0187    0.0530 C   0  0  0  0  0  0  0  0  0  0  0  0
   -4.3124    5.9667   -0.8660 C   0  0  0  0  0  0  0  0  0  0  0  0
   -5.2955    6.9363   -0.8495 C   0  0  0  0  0  0  0  0  0  0  0  0
   -5.2401    7.9637    0.0748 C   0  0  0  0  0  0  0  0  0  0  0  0
   -4.2032    8.0211    0.9876 C   0  0  0  0  0  0  0  0  0  0  0  0
   -3.2193    7.0515    0.9792 C   0  0  0  0  0  0  0  0  0  0  0  0
   -4.1461    9.1428    1.9923 C   0  0  0  0  0  0  0  0  0  0  0  0
   -3.4073   10.2362    1.4440 O   0  0  0  0  0  0  0  0  0  0  0  0
    5.9276    5.2165   -0.7715 H   0  0  0  0  0  0  0  0  0  0  0  0
    5.7637    3.8678   -1.9215 H   0  0  0  0  0  0  0  0  0  0  0  0
    6.0422    5.5203   -2.5216 H   0  0  0  0  0  0  0  0  0  0  0  0
    5.0485    3.4861    0.0061 H   0  0  0  0  0  0  0  0  0  0  0  0
    3.6741    2.2607    1.6359 H   0  0  0  0  0  0  0  0  0  0  0  0
    1.2313    2.5426    1.6522 H   0  0  0  0  0  0  0  0  0  0  0  0
    1.5348    5.2894   -1.6232 H   0  0  0  0  0  0  0  0  0  0  0  0
   -0.4774    6.2639    0.0402 H   0  0  0  0  0  0  0  0  0  0  0  0
   -4.4385    1.0417    0.0288 H   0  0  0  0  0  0  0  0  0  0  0  0
    0.0021   -0.0041    0.0020 H   0  0  0  0  0  0  0  0  0  0  0  0
    0.8223    1.4622    0.0021 H   0  0  0  0  0  0  0  0  0  0  0  0
   -4.3540    5.1670   -1.5906 H   0  0  0  0  0  0  0  0  0  0  0  0
   -6.1063    6.8946   -1.5617 H   0  0  0  0  0  0  0  0  0  0  0  0
   -6.0082    8.7229    0.0833 H   0  0  0  0  0  0  0  0  0  0  0  0
   -2.4098    7.0967    1.6927 H   0  0  0  0  0  0  0  0  0  0  0  0
   -5.1584    9.4706    2.2289 H   0  0  0  0  0  0  0  0  0  0  0  0
   -3.6561    8.7923    2.9007 H   0  0  0  0  0  0  0  0  0  0  0  0
   -3.3299   10.9956    2.0376 H   0  0  0  0  0  0  0  0  0  0  0  0
  1  2  1  0  0  0  0
  1 27  1  0  0  0  0
  1 28  1  0  0  0  0
  1 29  1  0  0  0  0
  2  3  1  0  0  0  0
  3  8  2  0  0  0  0
  3  4  1  0  0  0  0
  4  5  2  0  0  0  0
  4 30  1  0  0  0  0
  5  6  1  0  0  0  0
  5 31  1  0  0  0  0
  6  7  2  0  0  0  0
  6 32  1  0  0  0  0
  7  8  1  0  0  0  0
  7  9  1  0  0  0  0
  8 33  1  0  0  0  0
  9 13  1  0  0  0  0
  9 10  2  0  0  0  0
 10 11  1  0  0  0  0
 10 34  1  0  0  0  0
 11 12  1  0  0  0  0
 11 19  1  0  0  0  0
 12 17  2  0  0  0  0
 12 13  1  0  0  0  0
 13 14  2  0  0  0  0
 14 15  1  0  0  0  0
 14 18  1  0  0  0  0
 15 16  2  0  0  0  0
 16 17  1  0  0  0  0
 16 35  1  0  0  0  0
 18 36  1  0  0  0  0
 18 37  1  0  0  0  0
 19 24  2  0  0  0  0
 19 20  1  0  0  0  0
 20 21  2  0  0  0  0
 20 38  1  0  0  0  0
 21 22  1  0  0  0  0
 21 39  1  0  0  0  0
 22 23  2  0  0  0  0
 22 40  1  0  0  0  0
 23 24  1  0  0  0  0
 23 25  1  0  0  0  0
 24 41  1  0  0  0  0
 25 26  1  0  0  0  0
 25 42  1  0  0  0  0
 25 43  1  0  0  0  0
 26 44  1  0  0  0  0
M  END
$$$$
ZINC03815405
  -OEChem-08230709403D

 77 81  0     0  0  0  0  0  0999 V2000
  -14.8245    1.7607   -9.8470 C   0  0  0  0  0  0  0  0  0  0  0  0
  -12.7907    2.2967  -11.0476 C   0  0  0  0  0  0  0  0  0  0  0  0
  -11.3785    1.8007  -11.3673 C   0  0  0  0  0  0  0  0  0  0  0  0
  -11.2569    0.7451   -9.1926 C   0  0  0  0  0  0  0  0  0  0  0  0
  -12.6690    1.2410   -8.8728 C   0  0  0  0  0  0  0  0  0  0  0  0
   -9.2231    1.2811  -10.3931 C   0  0  0  0  0  0  0  0  0  0  0  0
   -8.3939    1.4096   -9.1137 C   0  0  0  0  0  0  0  0  0  0  0  0
   -6.9499    0.9911   -9.3976 C   0  0  0  0  0  0  0  0  0  0  0  0
   -6.1560    1.1141   -8.1726 N   0  0  0  0  0  0  0  0  0  0  0  0
   -4.8127    0.7894   -8.1842 C   0  0  0  0  0  0  0  0  0  0  0  0
   -4.2678    0.3681   -9.3234 N   0  0  0  0  0  0  0  0  0  0  0  0
   -2.9927    0.0437   -9.3956 C   0  0  0  0  0  0  0  0  0  0  0  0
   -2.2066    0.1520   -8.2356 C   0  0  0  0  0  0  0  0  0  0  0  0
   -0.8406   -0.1747   -8.2316 C   0  0  0  0  0  0  0  0  0  0  0  0
   -0.1435   -0.0380   -7.0419 C   0  0  0  0  0  0  0  0  0  0  0  0
   -0.8194    0.4184   -5.8902 C   0  0  0  0  0  0  0  0  0  0  0  0
   -2.1029    0.7136   -5.9178 N   0  0  0  0  0  0  0  0  0  0  0  0
   -2.8197    0.6050   -7.0381 C   0  0  0  0  0  0  0  0  0  0  0  0
   -4.1231    0.9102   -7.0658 N   0  0  0  0  0  0  0  0  0  0  0  0
   -0.1177    0.5539   -4.7009 N   0  0  0  0  0  0  0  0  0  0  0  0
   -0.7486    0.9886   -3.5921 C   0  0  0  0  0  0  0  0  0  0  0  0
   -1.9324    1.2619   -3.6339 O   0  0  0  0  0  0  0  0  0  0  0  0
   -0.0670    1.1202   -2.4368 N   0  0  0  0  0  0  0  0  0  0  0  0
   -0.7527    1.5927   -1.2315 C   0  0  0  0  0  0  0  0  0  0  0  0
   -0.0127    1.0858    0.0080 C   0  0  0  0  0  0  0  0  0  0  0  0
   -0.7288    1.5792    1.2668 C   0  0  0  0  0  0  0  0  0  0  0  0
   -0.7496    3.1091    1.2752 C   0  0  0  0  0  0  0  0  0  0  0  0
   -1.4896    3.6159    0.0357 C   0  0  0  0  0  0  0  0  0  0  0  0
   -0.7734    3.1225   -1.2231 C   0  0  0  0  0  0  0  0  0  0  0  0
    1.3006   -0.3680   -6.9795 C   0  0  0  0  0  0  0  0  0  0  0  0
    1.7101   -1.6609   -6.6533 C   0  0  0  0  0  0  0  0  0  0  0  0
    3.0570   -1.9630   -6.6011 C   0  0  0  0  0  0  0  0  0  0  0  0
    3.9989   -0.9844   -6.8620 C   0  0  0  0  0  0  0  0  0  0  0  0
    3.5994    0.3009   -7.1809 C   0  0  0  0  0  0  0  0  0  0  0  0
    2.2555    0.6146   -7.2411 C   0  0  0  0  0  0  0  0  0  0  0  0
    1.7560    2.2284   -7.6410 Cl  0  0  0  0  0  0  0  0  0  0  0  0
    0.5295   -2.8889   -6.3190 Cl  0  0  0  0  0  0  0  0  0  0  0  0
  -15.3886    1.7750  -10.7795 H   0  0  0  0  0  0  0  0  0  0  0  0
  -15.2799    1.0497   -9.1577 H   0  0  0  0  0  0  0  0  0  0  0  0
  -14.8336    2.7554   -9.4015 H   0  0  0  0  0  0  0  0  0  0  0  0
  -12.7342    3.2831  -10.5872 H   0  0  0  0  0  0  0  0  0  0  0  0
  -13.3718    2.3576  -11.9678 H   0  0  0  0  0  0  0  0  0  0  0  0
  -10.8860    2.5099  -12.0327 H   0  0  0  0  0  0  0  0  0  0  0  0
  -11.4364    0.8263  -11.8524 H   0  0  0  0  0  0  0  0  0  0  0  0
  -11.3134   -0.2413   -9.6529 H   0  0  0  0  0  0  0  0  0  0  0  0
  -10.6757    0.6846   -8.2724 H   0  0  0  0  0  0  0  0  0  0  0  0
  -12.6112    2.2154   -8.3878 H   0  0  0  0  0  0  0  0  0  0  0  0
  -13.1617    0.5322   -8.2073 H   0  0  0  0  0  0  0  0  0  0  0  0
   -8.8029    1.9262  -11.1648 H   0  0  0  0  0  0  0  0  0  0  0  0
   -9.2053    0.2463  -10.7353 H   0  0  0  0  0  0  0  0  0  0  0  0
   -8.8141    0.7645   -8.3421 H   0  0  0  0  0  0  0  0  0  0  0  0
   -8.4118    2.4443   -8.7716 H   0  0  0  0  0  0  0  0  0  0  0  0
   -6.5297    1.6362  -10.1693 H   0  0  0  0  0  0  0  0  0  0  0  0
   -6.9321   -0.0437   -9.7398 H   0  0  0  0  0  0  0  0  0  0  0  0
   -6.5731    1.4235   -7.3533 H   0  0  0  0  0  0  0  0  0  0  0  0
   -2.5613   -0.2969  -10.3253 H   0  0  0  0  0  0  0  0  0  0  0  0
   -0.3486   -0.5215   -9.1284 H   0  0  0  0  0  0  0  0  0  0  0  0
    0.8268    0.3358   -4.6676 H   0  0  0  0  0  0  0  0  0  0  0  0
    0.8776    0.9021   -2.4035 H   0  0  0  0  0  0  0  0  0  0  0  0
   -1.7753    1.2154   -1.2238 H   0  0  0  0  0  0  0  0  0  0  0  0
    0.0021   -0.0041    0.0020 H   0  0  0  0  0  0  0  0  0  0  0  0
    1.0099    1.4631    0.0003 H   0  0  0  0  0  0  0  0  0  0  0  0
   -1.7514    1.2020    1.2746 H   0  0  0  0  0  0  0  0  0  0  0  0
   -0.2017    1.2182    2.1499 H   0  0  0  0  0  0  0  0  0  0  0  0
    0.2730    3.4864    1.2675 H   0  0  0  0  0  0  0  0  0  0  0  0
   -1.2598    3.4606    2.1720 H   0  0  0  0  0  0  0  0  0  0  0  0
   -1.5044    4.7058    0.0417 H   0  0  0  0  0  0  0  0  0  0  0  0
   -2.5122    3.2386    0.0434 H   0  0  0  0  0  0  0  0  0  0  0  0
    0.2491    3.4998   -1.2308 H   0  0  0  0  0  0  0  0  0  0  0  0
   -1.3006    3.4836   -2.1062 H   0  0  0  0  0  0  0  0  0  0  0  0
    3.3753   -2.9647   -6.3526 H   0  0  0  0  0  0  0  0  0  0  0  0
    5.0508   -1.2247   -6.8162 H   0  0  0  0  0  0  0  0  0  0  0  0
    4.3397    1.0608   -7.3829 H   0  0  0  0  0  0  0  0  0  0  0  0
  -13.4379    1.3338  -10.1319 N   0  3  0  0  0  0  0  0  0  0  0  0
  -13.4585    0.4099  -10.5793 H   0  0  0  0  0  0  0  0  0  0  0  0
  -10.6097    1.7081  -10.1085 N   0  3  0  0  0  0  0  0  0  0  0  0
  -10.5891    2.6321   -9.6612 H   0  0  0  0  0  0  0  0  0  0  0  0
  1 38  1  0  0  0  0
  1 39  1  0  0  0  0
  1 40  1  0  0  0  0
  1 74  1  0  0  0  0
  2  3  1  0  0  0  0
  2 41  1  0  0  0  0
  2 42  1  0  0  0  0
  2 74  1  0  0  0  0
  3 43  1  0  0  0  0
  3 44  1  0  0  0  0
  3 76  1  0  0  0  0
  4  5  1  0  0  0  0
  4 45  1  0  0  0  0
  4 46  1  0  0  0  0
  4 76  1  0  0  0  0
  5 47  1  0  0  0  0
  5 48  1  0  0  0  0
  5 74  1  0  0  0  0
  6  7  1  0  0  0  0
  6 49  1  0  0  0  0
  6 50  1  0  0  0  0
  6 76  1  0  0  0  0
  7  8  1  0  0  0  0
  7 51  1  0  0  0  0
  7 52  1  0  0  0  0
  8  9  1  0  0  0  0
  8 53  1  0  0  0  0
  8 54  1  0  0  0  0
  9 10  1  0  0  0  0
  9 55  1  0  0  0  0
 10 19  2  0  0  0  0
 10 11  1  0  0  0  0
 11 12  2  0  0  0  0
 12 13  1  0  0  0  0
 12 56  1  0  0  0  0
 13 18  2  0  0  0  0
 13 14  1  0  0  0  0
 14 15  2  0  0  0  0
 14 57  1  0  0  0  0
 15 16  1  0  0  0  0
 15 30  1  0  0  0  0
 16 17  2  0  0  0  0
 16 20  1  0  0  0  0
 17 18  1  0  0  0  0
 18 19  1  0  0  0  0
 20 21  1  0  0  0  0
 20 58  1  0  0  0  0
 21 22  2  0  0  0  0
 21 23  1  0  0  0  0
 23 24  1  0  0  0  0
 23 59  1  0  0  0  0
 24 29  1  0  0  0  0
 24 25  1  0  0  0  0
 24 60  1  0  0  0  0
 25 26  1  0  0  0  0
 25 61  1  0  0  0  0
 25 62  1  0  0  0  0
 26 27  1  0  0  0  0
 26 63  1  0  0  0  0
 26 64  1  0  0  0  0
 27 28  1  0  0  0  0
 27 65  1  0  0  0  0
 27 66  1  0  0  0  0
 28 29  1  0  0  0  0
 28 67  1  0  0  0  0
 28 68  1  0  0  0  0
 29 69  1  0  0  0  0
 29 70  1  0  0  0  0
 30 35  2  0  0  0  0
 30 31  1  0  0  0  0
 31 32  2  0  0  0  0
 31 37  1  0  0  0  0
 32 33  1  0  0  0  0
 32 71  1  0  0  0  0
 33 34  2  0  0  0  0
 33 72  1  0  0  0  0
 34 35  1  0  0  0  0
 34 73  1  0  0  0  0
 35 36  1  0  0  0  0
 74 75  1  0  0  0  0
 76 77  1  0  0  0  0
M  CHG  2  74   1  76   1
M  END
$$$$
ZINC03815412
  -OEChem-08230709403D

 74 78  0     0  0  0  0  0  0999 V2000
   -7.8609    7.7677   -0.8644 C   0  0  0  0  0  0  0  0  0  0  0  0
   -5.7851    7.6946    0.3808 C   0  0  0  0  0  0  0  0  0  0  0  0
   -4.3103    7.2933    0.3001 C   0  0  0  0  0  0  0  0  0  0  0  0
   -4.8851    5.4832   -1.2006 C   0  0  0  0  0  0  0  0  0  0  0  0
   -6.3598    5.8845   -1.1199 C   0  0  0  0  0  0  0  0  0  0  0  0
   -2.8093    5.4101    0.0446 C   0  0  0  0  0  0  0  0  0  0  0  0
   -2.7524    3.8812    0.0360 C   0  0  0  0  0  0  0  0  0  0  0  0
   -1.2920    3.4252    0.0267 C   0  0  0  0  0  0  0  0  0  0  0  0
   -1.2375    1.9612    0.0185 N   0  0  0  0  0  0  0  0  0  0  0  0
   -0.0158    1.3152    0.0093 C   0  0  0  0  0  0  0  0  0  0  0  0
    1.0945    2.0497    0.0026 N   0  0  0  0  0  0  0  0  0  0  0  0
    2.2875    1.4904   -0.0119 C   0  0  0  0  0  0  0  0  0  0  0  0
    2.3700    0.0874   -0.0202 C   0  0  0  0  0  0  0  0  0  0  0  0
    3.6040   -0.5833   -0.0361 C   0  0  0  0  0  0  0  0  0  0  0  0
    3.5901   -1.9690   -0.0439 C   0  0  0  0  0  0  0  0  0  0  0  0
    2.3544   -2.6505   -0.0357 C   0  0  0  0  0  0  0  0  0  0  0  0
    1.2097   -1.9987   -0.0207 N   0  0  0  0  0  0  0  0  0  0  0  0
    1.1664   -0.6651   -0.0127 C   0  0  0  0  0  0  0  0  0  0  0  0
    0.0021   -0.0041    0.0020 N   0  0  0  0  0  0  0  0  0  0  0  0
    2.3449   -4.0378   -0.0430 N   0  0  0  0  0  0  0  0  0  0  0  0
    1.1731   -4.7038   -0.0353 C   0  0  0  0  0  0  0  0  0  0  0  0
    0.1246   -4.0888   -0.0219 O   0  0  0  0  0  0  0  0  0  0  0  0
    1.1639   -6.0515   -0.0425 N   0  0  0  0  0  0  0  0  0  0  0  0
   -0.1097   -6.7753   -0.0341 C   0  0  0  0  0  0  0  0  0  0  0  0
    0.1555   -8.2588   -0.0446 C   0  0  0  0  0  0  0  0  0  0  0  0
    0.2600   -8.9337   -1.2465 C   0  0  0  0  0  0  0  0  0  0  0  0
    0.5081  -10.2936   -1.2561 C   0  0  0  0  0  0  0  0  0  0  0  0
    0.6417  -10.9803   -0.0639 C   0  0  0  0  0  0  0  0  0  0  0  0
    0.5315  -10.3064    1.1380 C   0  0  0  0  0  0  0  0  0  0  0  0
    0.2886   -8.9456    1.1476 C   0  0  0  0  0  0  0  0  0  0  0  0
    4.8629   -2.7291   -0.0612 C   0  0  0  0  0  0  0  0  0  0  0  0
    5.4489   -3.0863   -1.2756 C   0  0  0  0  0  0  0  0  0  0  0  0
    6.6375   -3.7900   -1.2849 C   0  0  0  0  0  0  0  0  0  0  0  0
    7.2411   -4.1495   -0.0935 C   0  0  0  0  0  0  0  0  0  0  0  0
    6.6621   -3.8033    1.1140 C   0  0  0  0  0  0  0  0  0  0  0  0
    5.4764   -3.0951    1.1369 C   0  0  0  0  0  0  0  0  0  0  0  0
    4.7510   -2.6620    2.6534 Cl  0  0  0  0  0  0  0  0  0  0  0  0
    4.6890   -2.6422   -2.7720 Cl  0  0  0  0  0  0  0  0  0  0  0  0
   -7.9027    8.8506   -0.7473 H   0  0  0  0  0  0  0  0  0  0  0  0
   -8.3357    7.4853   -1.8040 H   0  0  0  0  0  0  0  0  0  0  0  0
   -8.3847    7.2921   -0.0353 H   0  0  0  0  0  0  0  0  0  0  0  0
   -6.2588    7.1735    1.2128 H   0  0  0  0  0  0  0  0  0  0  0  0
   -5.8611    8.7709    0.5352 H   0  0  0  0  0  0  0  0  0  0  0  0
   -3.8153    7.5365    1.2402 H   0  0  0  0  0  0  0  0  0  0  0  0
   -3.8302    7.8349   -0.5149 H   0  0  0  0  0  0  0  0  0  0  0  0
   -4.4114    6.0043   -2.0327 H   0  0  0  0  0  0  0  0  0  0  0  0
   -4.8090    4.4068   -1.3546 H   0  0  0  0  0  0  0  0  0  0  0  0
   -6.8400    5.3429   -0.3050 H   0  0  0  0  0  0  0  0  0  0  0  0
   -6.8552    5.6413   -2.0599 H   0  0  0  0  0  0  0  0  0  0  0  0
   -2.3051    5.7875    0.9343 H   0  0  0  0  0  0  0  0  0  0  0  0
   -2.3134    5.7971   -0.8456 H   0  0  0  0  0  0  0  0  0  0  0  0
   -3.2565    3.5038   -0.8537 H   0  0  0  0  0  0  0  0  0  0  0  0
   -3.2482    3.4942    0.9262 H   0  0  0  0  0  0  0  0  0  0  0  0
   -0.7878    3.8025    0.9164 H   0  0  0  0  0  0  0  0  0  0  0  0
   -0.7961    3.8122   -0.8635 H   0  0  0  0  0  0  0  0  0  0  0  0
   -2.0589    1.4453    0.0195 H   0  0  0  0  0  0  0  0  0  0  0  0
    3.1815    2.0963   -0.0168 H   0  0  0  0  0  0  0  0  0  0  0  0
    4.5350   -0.0360   -0.0418 H   0  0  0  0  0  0  0  0  0  0  0  0
    3.1815   -4.5285   -0.0537 H   0  0  0  0  0  0  0  0  0  0  0  0
    2.0006   -6.5422   -0.0531 H   0  0  0  0  0  0  0  0  0  0  0  0
   -0.6709   -6.5129    0.8627 H   0  0  0  0  0  0  0  0  0  0  0  0
   -0.6880   -6.5034   -0.9171 H   0  0  0  0  0  0  0  0  0  0  0  0
    0.1515   -8.3979   -2.1779 H   0  0  0  0  0  0  0  0  0  0  0  0
    0.5938  -10.8202   -2.1952 H   0  0  0  0  0  0  0  0  0  0  0  0
    0.8318  -12.0434   -0.0714 H   0  0  0  0  0  0  0  0  0  0  0  0
    0.6355  -10.8430    2.0695 H   0  0  0  0  0  0  0  0  0  0  0  0
    0.2025   -8.4190    2.0867 H   0  0  0  0  0  0  0  0  0  0  0  0
    7.0945   -4.0632   -2.2245 H   0  0  0  0  0  0  0  0  0  0  0  0
    8.1683   -4.7032   -0.1061 H   0  0  0  0  0  0  0  0  0  0  0  0
    7.1384   -4.0870    2.0409 H   0  0  0  0  0  0  0  0  0  0  0  0
   -6.4450    7.3429   -0.8940 N   0  3  0  0  0  0  0  0  0  0  0  0
   -5.9671    7.8282   -1.6623 H   0  0  0  0  0  0  0  0  0  0  0  0
   -4.2251    5.8352    0.0744 N   0  3  0  0  0  0  0  0  0  0  0  0
   -4.7030    5.3499    0.8427 H   0  0  0  0  0  0  0  0  0  0  0  0
  1 39  1  0  0  0  0
  1 40  1  0  0  0  0
  1 41  1  0  0  0  0
  1 71  1  0  0  0  0
  2  3  1  0  0  0  0
  2 42  1  0  0  0  0
  2 43  1  0  0  0  0
  2 71  1  0  0  0  0
  3 44  1  0  0  0  0
  3 45  1  0  0  0  0
  3 73  1  0  0  0  0
  4  5  1  0  0  0  0
  4 46  1  0  0  0  0
  4 47  1  0  0  0  0
  4 73  1  0  0  0  0
  5 48  1  0  0  0  0
  5 49  1  0  0  0  0
  5 71  1  0  0  0  0
  6  7  1  0  0  0  0
  6 50  1  0  0  0  0
  6 51  1  0  0  0  0
  6 73  1  0  0  0  0
  7  8  1  0  0  0  0
  7 52  1  0  0  0  0
  7 53  1  0  0  0  0
  8  9  1  0  0  0  0
  8 54  1  0  0  0  0
  8 55  1  0  0  0  0
  9 10  1  0  0  0  0
  9 56  1  0  0  0  0
 10 19  2  0  0  0  0
 10 11  1  0  0  0  0
 11 12  2  0  0  0  0
 12 13  1  0  0  0  0
 12 57  1  0  0  0  0
 13 18  2  0  0  0  0
 13 14  1  0  0  0  0
 14 15  2  0  0  0  0
 14 58  1  0  0  0  0
 15 16  1  0  0  0  0
 15 31  1  0  0  0  0
 16 17  2  0  0  0  0
 16 20  1  0  0  0  0
 17 18  1  0  0  0  0
 18 19  1  0  0  0  0
 20 21  1  0  0  0  0
 20 59  1  0  0  0  0
 21 22  2  0  0  0  0
 21 23  1  0  0  0  0
 23 24  1  0  0  0  0
 23 60  1  0  0  0  0
 24 25  1  0  0  0  0
 24 61  1  0  0  0  0
 24 62  1  0  0  0  0
 25 30  2  0  0  0  0
 25 26  1  0  0  0  0
 26 27  2  0  0  0  0
 26 63  1  0  0  0  0
 27 28  1  0  0  0  0
 27 64  1  0  0  0  0
 28 29  2  0  0  0  0
 28 65  1  0  0  0  0
 29 30  1  0  0  0  0
 29 66  1  0  0  0  0
 30 67  1  0  0  0  0
 31 36  2  0  0  0  0
 31 32  1  0  0  0  0
 32 33  2  0  0  0  0
 32 38  1  0  0  0  0
 33 34  1  0  0  0  0
 33 68  1  0  0  0  0
 34 35  2  0  0  0  0
 34 69  1  0  0  0  0
 35 36  1  0  0  0  0
 35 70  1  0  0  0  0
 36 37  1  0  0  0  0
 71 72  1  0  0  0  0
 73 74  1  0  0  0  0
M  CHG  2  71   1  73   1
M  END
$$$$
ZINC03815480
  -OEChem-08230709403D

 59 63  0     0  0  0  0  0  0999 V2000
   -5.0668    5.9046  -10.2548 C   0  0  0  0  0  0  0  0  0  0  0  0
   -4.9239    4.4536  -10.1124 N   0  0  0  0  0  0  0  0  0  0  0  0
   -4.4245    3.9316   -8.9459 C   0  0  0  0  0  0  0  0  0  0  0  0
   -4.2808    2.5355   -8.7923 C   0  0  0  0  0  0  0  0  0  0  0  0
   -4.6514    1.6628   -9.8407 C   0  0  0  0  0  0  0  0  0  0  0  0
   -5.1484    2.1928  -11.0012 C   0  0  0  0  0  0  0  0  0  0  0  0
   -5.2845    3.6454  -11.1278 C   0  0  0  0  0  0  0  0  0  0  0  0
   -5.7265    4.1252  -12.1566 O   0  0  0  0  0  0  0  0  0  0  0  0
   -5.5448    1.3047  -12.1188 C   0  0  0  0  0  0  0  0  0  0  0  0
   -4.6157    0.9550  -13.0994 C   0  0  0  0  0  0  0  0  0  0  0  0
   -4.9904    0.1227  -14.1360 C   0  0  0  0  0  0  0  0  0  0  0  0
   -6.2863   -0.3557  -14.2090 C   0  0  0  0  0  0  0  0  0  0  0  0
   -7.2136   -0.0086  -13.2431 C   0  0  0  0  0  0  0  0  0  0  0  0
   -6.8506    0.8190  -12.1986 C   0  0  0  0  0  0  0  0  0  0  0  0
   -8.0162    1.2544  -10.9880 Cl  0  0  0  0  0  0  0  0  0  0  0  0
   -2.9907    1.5596  -13.0133 Cl  0  0  0  0  0  0  0  0  0  0  0  0
   -3.7662    2.0428   -7.5837 C   0  0  0  0  0  0  0  0  0  0  0  0
   -3.4373    2.9040   -6.6393 N   0  0  0  0  0  0  0  0  0  0  0  0
   -3.5862    4.2120   -6.8190 C   0  0  0  0  0  0  0  0  0  0  0  0
   -4.0724    4.7237   -7.9396 N   0  0  0  0  0  0  0  0  0  0  0  0
   -3.2261    5.0692   -5.7975 N   0  0  0  0  0  0  0  0  0  0  0  0
   -2.8255    4.5530   -4.5586 C   0  0  0  0  0  0  0  0  0  0  0  0
   -1.8587    5.2128   -3.8113 C   0  0  0  0  0  0  0  0  0  0  0  0
   -1.4635    4.7037   -2.5902 C   0  0  0  0  0  0  0  0  0  0  0  0
   -2.0333    3.5322   -2.1091 C   0  0  0  0  0  0  0  0  0  0  0  0
   -2.9964    2.8695   -2.8588 C   0  0  0  0  0  0  0  0  0  0  0  0
   -3.3956    3.3817   -4.0773 C   0  0  0  0  0  0  0  0  0  0  0  0
   -1.6329    3.0162   -0.8714 N   0  0  0  0  0  0  0  0  0  0  0  0
   -2.3588    1.7777   -0.5574 C   0  0  0  0  0  0  0  0  0  0  0  0
   -1.8368    1.2042    0.7621 C   0  0  0  0  0  0  0  0  0  0  0  0
   -1.2866    3.4378    1.5152 C   0  0  0  0  0  0  0  0  0  0  0  0
   -1.8086    4.0112    0.1957 C   0  0  0  0  0  0  0  0  0  0  0  0
   -1.5914    1.6571    3.1285 C   0  0  0  0  0  0  0  0  0  0  0  0
   -4.1501    6.3207  -10.6725 H   0  0  0  0  0  0  0  0  0  0  0  0
   -5.9017    6.1239  -10.9203 H   0  0  0  0  0  0  0  0  0  0  0  0
   -5.2550    6.3488   -9.2773 H   0  0  0  0  0  0  0  0  0  0  0  0
   -4.5432    0.5941   -9.7284 H   0  0  0  0  0  0  0  0  0  0  0  0
   -4.2713   -0.1518  -14.8936 H   0  0  0  0  0  0  0  0  0  0  0  0
   -6.5754   -1.0028  -15.0239 H   0  0  0  0  0  0  0  0  0  0  0  0
   -8.2239   -0.3852  -13.3060 H   0  0  0  0  0  0  0  0  0  0  0  0
   -3.6422    0.9811   -7.4293 H   0  0  0  0  0  0  0  0  0  0  0  0
   -3.2505    6.0286   -5.9382 H   0  0  0  0  0  0  0  0  0  0  0  0
   -1.4156    6.1239   -4.1855 H   0  0  0  0  0  0  0  0  0  0  0  0
   -0.7116    5.2169   -2.0091 H   0  0  0  0  0  0  0  0  0  0  0  0
   -3.4360    1.9559   -2.4869 H   0  0  0  0  0  0  0  0  0  0  0  0
   -4.1481    2.8690   -4.6582 H   0  0  0  0  0  0  0  0  0  0  0  0
   -2.2030    1.0524   -1.3560 H   0  0  0  0  0  0  0  0  0  0  0  0
   -3.4231    1.9936   -0.4644 H   0  0  0  0  0  0  0  0  0  0  0  0
   -2.3938    0.3011    1.0117 H   0  0  0  0  0  0  0  0  0  0  0  0
   -0.7788    0.9626    0.6604 H   0  0  0  0  0  0  0  0  0  0  0  0
   -0.2223    3.2219    1.4222 H   0  0  0  0  0  0  0  0  0  0  0  0
   -1.4421    4.1632    2.3138 H   0  0  0  0  0  0  0  0  0  0  0  0
   -1.2516    4.9144   -0.0539 H   0  0  0  0  0  0  0  0  0  0  0  0
   -2.8666    4.2528    0.2970 H   0  0  0  0  0  0  0  0  0  0  0  0
   -0.5391    1.3766    3.0815 H   0  0  0  0  0  0  0  0  0  0  0  0
   -1.7316    2.4138    3.9004 H   0  0  0  0  0  0  0  0  0  0  0  0
   -2.1912    0.7789    3.3673 H   0  0  0  0  0  0  0  0  0  0  0  0
   -2.0395    2.2052    1.8304 N   0  3  0  0  0  0  0  0  0  0  0  0
   -3.0392    2.4311    1.8909 H   0  0  0  0  0  0  0  0  0  0  0  0
  1  2  1  0  0  0  0
  1 34  1  0  0  0  0
  1 35  1  0  0  0  0
  1 36  1  0  0  0  0
  2  7  1  0  0  0  0
  2  3  1  0  0  0  0
  3 20  2  0  0  0  0
  3  4  1  0  0  0  0
  4  5  1  0  0  0  0
  4 17  2  0  0  0  0
  5  6  2  0  0  0  0
  5 37  1  0  0  0  0
  6  7  1  0  0  0  0
  6  9  1  0  0  0  0
  7  8  2  0  0  0  0
  9 14  2  0  0  0  0
  9 10  1  0  0  0  0
 10 11  2  0  0  0  0
 10 16  1  0  0  0  0
 11 12  1  0  0  0  0
 11 38  1  0  0  0  0
 12 13  2  0  0  0  0
 12 39  1  0  0  0  0
 13 14  1  0  0  0  0
 13 40  1  0  0  0  0
 14 15  1  0  0  0  0
 17 18  1  0  0  0  0
 17 41  1  0  0  0  0
 18 19  2  0  0  0  0
 19 20  1  0  0  0  0
 19 21  1  0  0  0  0
 21 22  1  0  0  0  0
 21 42  1  0  0  0  0
 22 27  2  0  0  0  0
 22 23  1  0  0  0  0
 23 24  2  0  0  0  0
 23 43  1  0  0  0  0
 24 25  1  0  0  0  0
 24 44  1  0  0  0  0
 25 26  2  0  0  0  0
 25 28  1  0  0  0  0
 26 27  1  0  0  0  0
 26 45  1  0  0  0  0
 27 46  1  0  0  0  0
 28 32  1  0  0  0  0
 28 29  1  0  0  0  0
 29 30  1  0  0  0  0
 29 47  1  0  0  0  0
 29 48  1  0  0  0  0
 30 49  1  0  0  0  0
 30 50  1  0  0  0  0
 30 58  1  0  0  0  0
 31 32  1  0  0  0  0
 31 51  1  0  0  0  0
 31 52  1  0  0  0  0
 31 58  1  0  0  0  0
 32 53  1  0  0  0  0
 32 54  1  0  0  0  0
 33 55  1  0  0  0  0
 33 56  1  0  0  0  0
 33 57  1  0  0  0  0
 33 58  1  0  0  0  0
 58 59  1  0  0  0  0
M  CHG  1  58   1
M  END
$$$$
ZINC03815482
  -OEChem-08230709403D

 66 69  0     0  0  0  0  0  0999 V2000
    2.0264    8.2096    2.3954 C   0  0  0  0  0  0  0  0  0  0  0  0
    2.4026    8.1290    0.9145 C   0  0  0  0  0  0  0  0  0  0  0  0
    3.6471    7.3702    0.7675 N   0  0  0  0  0  0  0  0  0  0  0  0
    3.5968    6.0100    0.5949 C   0  0  0  0  0  0  0  0  0  0  0  0
    4.7868    5.2639    0.4516 C   0  0  0  0  0  0  0  0  0  0  0  0
    6.0418    5.9134    0.4849 C   0  0  0  0  0  0  0  0  0  0  0  0
    6.0821    7.2712    0.6566 C   0  0  0  0  0  0  0  0  0  0  0  0
    4.8291    8.0151    0.8026 C   0  0  0  0  0  0  0  0  0  0  0  0
    4.8560    9.2232    0.9562 O   0  0  0  0  0  0  0  0  0  0  0  0
    7.3818    7.9814    0.6954 C   0  0  0  0  0  0  0  0  0  0  0  0
    8.0419    8.1688    1.9104 C   0  0  0  0  0  0  0  0  0  0  0  0
    9.2555    8.8276    1.9390 C   0  0  0  0  0  0  0  0  0  0  0  0
    9.8119    9.3099    0.7680 C   0  0  0  0  0  0  0  0  0  0  0  0
    9.1599    9.1324   -0.4390 C   0  0  0  0  0  0  0  0  0  0  0  0
    7.9483    8.4708   -0.4822 C   0  0  0  0  0  0  0  0  0  0  0  0
    7.1317    8.2492   -1.9980 Cl  0  0  0  0  0  0  0  0  0  0  0  0
    7.3425    7.5696    3.3820 Cl  0  0  0  0  0  0  0  0  0  0  0  0
    4.6913    3.8752    0.2767 C   0  0  0  0  0  0  0  0  0  0  0  0
    3.4930    3.3223    0.2532 N   0  0  0  0  0  0  0  0  0  0  0  0
    2.3941    4.0562    0.3912 C   0  0  0  0  0  0  0  0  0  0  0  0
    2.4337    5.3699    0.5536 N   0  0  0  0  0  0  0  0  0  0  0  0
    1.1651    3.4265    0.3585 N   0  0  0  0  0  0  0  0  0  0  0  0
    1.0957    2.0296    0.2920 C   0  0  0  0  0  0  0  0  0  0  0  0
    2.0510    1.2551    0.9368 C   0  0  0  0  0  0  0  0  0  0  0  0
    1.9816   -0.1226    0.8710 C   0  0  0  0  0  0  0  0  0  0  0  0
    0.9576   -0.7327    0.1615 C   0  0  0  0  0  0  0  0  0  0  0  0
    0.0029    0.0403   -0.4828 C   0  0  0  0  0  0  0  0  0  0  0  0
    0.0711    1.4180   -0.4184 C   0  0  0  0  0  0  0  0  0  0  0  0
    0.8894   -2.0893    0.0980 O   0  0  0  0  0  0  0  0  0  0  0  0
   -0.1914   -2.6503   -0.6498 C   0  0  0  0  0  0  0  0  0  0  0  0
   -0.0357   -4.1712   -0.7085 C   0  0  0  0  0  0  0  0  0  0  0  0
   -1.5478   -4.7397    1.0951 C   0  0  0  0  0  0  0  0  0  0  0  0
   -1.6026   -5.0866    2.5842 C   0  0  0  0  0  0  0  0  0  0  0  0
    0.4370   -6.0731    0.7135 C   0  0  0  0  0  0  0  0  0  0  0  0
    1.9503   -5.9810    0.5078 C   0  0  0  0  0  0  0  0  0  0  0  0
    2.8235    8.7089    2.9461 H   0  0  0  0  0  0  0  0  0  0  0  0
    1.1004    8.7741    2.5048 H   0  0  0  0  0  0  0  0  0  0  0  0
    1.8872    7.2032    2.7902 H   0  0  0  0  0  0  0  0  0  0  0  0
    2.5418    9.1353    0.5197 H   0  0  0  0  0  0  0  0  0  0  0  0
    1.6054    7.6296    0.3638 H   0  0  0  0  0  0  0  0  0  0  0  0
    6.9551    5.3474    0.3754 H   0  0  0  0  0  0  0  0  0  0  0  0
    9.7695    8.9697    2.8782 H   0  0  0  0  0  0  0  0  0  0  0  0
   10.7593    9.8276    0.7963 H   0  0  0  0  0  0  0  0  0  0  0  0
    9.5995    9.5117   -1.3497 H   0  0  0  0  0  0  0  0  0  0  0  0
    5.5795    3.2713    0.1634 H   0  0  0  0  0  0  0  0  0  0  0  0
    0.3501    3.9521    0.3817 H   0  0  0  0  0  0  0  0  0  0  0  0
    2.8456    1.7299    1.4932 H   0  0  0  0  0  0  0  0  0  0  0  0
    2.7245   -0.7251    1.3724 H   0  0  0  0  0  0  0  0  0  0  0  0
   -0.7939   -0.4355   -1.0353 H   0  0  0  0  0  0  0  0  0  0  0  0
   -0.6721    2.0197   -0.9205 H   0  0  0  0  0  0  0  0  0  0  0  0
   -1.1359   -2.4001   -0.1667 H   0  0  0  0  0  0  0  0  0  0  0  0
   -0.1822   -2.2448   -1.6616 H   0  0  0  0  0  0  0  0  0  0  0  0
   -0.8173   -4.5923   -1.3409 H   0  0  0  0  0  0  0  0  0  0  0  0
    0.9410   -4.4207   -1.1233 H   0  0  0  0  0  0  0  0  0  0  0  0
   -1.9893   -3.7562    0.9346 H   0  0  0  0  0  0  0  0  0  0  0  0
   -2.1051   -5.4851    0.5277 H   0  0  0  0  0  0  0  0  0  0  0  0
   -1.1610   -6.0702    2.7447 H   0  0  0  0  0  0  0  0  0  0  0  0
   -1.0453   -4.3412    3.1517 H   0  0  0  0  0  0  0  0  0  0  0  0
   -2.6404   -5.0955    2.9173 H   0  0  0  0  0  0  0  0  0  0  0  0
    0.2290   -6.5116    1.6895 H   0  0  0  0  0  0  0  0  0  0  0  0
    0.0017   -6.6984   -0.0660 H   0  0  0  0  0  0  0  0  0  0  0  0
    2.1588   -5.4709   -0.4327 H   0  0  0  0  0  0  0  0  0  0  0  0
    2.3955   -5.4219    1.3308 H   0  0  0  0  0  0  0  0  0  0  0  0
    2.3747   -6.9845    0.4787 H   0  0  0  0  0  0  0  0  0  0  0  0
   -0.1342   -4.7107    0.6640 N   0  3  0  0  0  0  0  0  0  0  0  0
    0.3960   -4.1035    1.2999 H   0  0  0  0  0  0  0  0  0  0  0  0
  1  2  1  0  0  0  0
  1 36  1  0  0  0  0
  1 37  1  0  0  0  0
  1 38  1  0  0  0  0
  2  3  1  0  0  0  0
  2 39  1  0  0  0  0
  2 40  1  0  0  0  0
  3  8  1  0  0  0  0
  3  4  1  0  0  0  0
  4 21  2  0  0  0  0
  4  5  1  0  0  0  0
  5  6  1  0  0  0  0
  5 18  2  0  0  0  0
  6  7  2  0  0  0  0
  6 41  1  0  0  0  0
  7  8  1  0  0  0  0
  7 10  1  0  0  0  0
  8  9  2  0  0  0  0
 10 15  2  0  0  0  0
 10 11  1  0  0  0  0
 11 12  2  0  0  0  0
 11 17  1  0  0  0  0
 12 13  1  0  0  0  0
 12 42  1  0  0  0  0
 13 14  2  0  0  0  0
 13 43  1  0  0  0  0
 14 15  1  0  0  0  0
 14 44  1  0  0  0  0
 15 16  1  0  0  0  0
 18 19  1  0  0  0  0
 18 45  1  0  0  0  0
 19 20  2  0  0  0  0
 20 21  1  0  0  0  0
 20 22  1  0  0  0  0
 22 23  1  0  0  0  0
 22 46  1  0  0  0  0
 23 28  2  0  0  0  0
 23 24  1  0  0  0  0
 24 25  2  0  0  0  0
 24 47  1  0  0  0  0
 25 26  1  0  0  0  0
 25 48  1  0  0  0  0
 26 27  2  0  0  0  0
 26 29  1  0  0  0  0
 27 28  1  0  0  0  0
 27 49  1  0  0  0  0
 28 50  1  0  0  0  0
 29 30  1  0  0  0  0
 30 31  1  0  0  0  0
 30 51  1  0  0  0  0
 30 52  1  0  0  0  0
 31 53  1  0  0  0  0
 31 54  1  0  0  0  0
 31 65  1  0  0  0  0
 32 33  1  0  0  0  0
 32 55  1  0  0  0  0
 32 56  1  0  0  0  0
 32 65  1  0  0  0  0
 33 57  1  0  0  0  0
 33 58  1  0  0  0  0
 33 59  1  0  0  0  0
 34 35  1  0  0  0  0
 34 60  1  0  0  0  0
 34 61  1  0  0  0  0
 34 65  1  0  0  0  0
 35 62  1  0  0  0  0
 35 63  1  0  0  0  0
 35 64  1  0  0  0  0
 65 66  1  0  0  0  0
M  CHG  1  65   1
M  END
$$$$
ZINC03815483
  -OEChem-08230709403D

 63 66  0     0  0  0  0  0  0999 V2000
    1.5894    9.2284    0.0640 C   0  0  0  0  0  0  0  0  0  0  0  0
    1.8353    8.8707   -1.4032 C   0  0  0  0  0  0  0  0  0  0  0  0
    3.1219    8.1814   -1.5287 N   0  0  0  0  0  0  0  0  0  0  0  0
    3.1731    6.8144   -1.4229 C   0  0  0  0  0  0  0  0  0  0  0  0
    4.4048    6.1347   -1.5415 C   0  0  0  0  0  0  0  0  0  0  0  0
    5.5972    6.8583   -1.7706 C   0  0  0  0  0  0  0  0  0  0  0  0
    5.5363    8.2221   -1.8757 C   0  0  0  0  0  0  0  0  0  0  0  0
    4.2425    8.8960   -1.7473 C   0  0  0  0  0  0  0  0  0  0  0  0
    4.1793   10.1091   -1.8391 O   0  0  0  0  0  0  0  0  0  0  0  0
    6.7683    9.0090   -2.1161 C   0  0  0  0  0  0  0  0  0  0  0  0
    7.5174    9.4846   -1.0392 C   0  0  0  0  0  0  0  0  0  0  0  0
    8.6676   10.2135   -1.2702 C   0  0  0  0  0  0  0  0  0  0  0  0
    9.0720   10.4809   -2.5658 C   0  0  0  0  0  0  0  0  0  0  0  0
    8.3309   10.0172   -3.6378 C   0  0  0  0  0  0  0  0  0  0  0  0
    7.1816    9.2827   -3.4206 C   0  0  0  0  0  0  0  0  0  0  0  0
    6.2530    8.7016   -4.7673 Cl  0  0  0  0  0  0  0  0  0  0  0  0
    7.0083    9.1552    0.5875 Cl  0  0  0  0  0  0  0  0  0  0  0  0
    4.4133    4.7364   -1.4275 C   0  0  0  0  0  0  0  0  0  0  0  0
    3.2698    4.1129   -1.2141 N   0  0  0  0  0  0  0  0  0  0  0  0
    2.1290    4.7856   -1.1078 C   0  0  0  0  0  0  0  0  0  0  0  0
    2.0702    6.1045   -1.2132 N   0  0  0  0  0  0  0  0  0  0  0  0
    0.9607    4.0833   -0.8848 N   0  0  0  0  0  0  0  0  0  0  0  0
    1.0056    2.7009   -0.6665 C   0  0  0  0  0  0  0  0  0  0  0  0
    2.0864    2.1375   -0.0009 C   0  0  0  0  0  0  0  0  0  0  0  0
    2.1297    0.7741    0.2143 C   0  0  0  0  0  0  0  0  0  0  0  0
    1.0939   -0.0325   -0.2337 C   0  0  0  0  0  0  0  0  0  0  0  0
    0.0140    0.5296   -0.8986 C   0  0  0  0  0  0  0  0  0  0  0  0
   -0.0307    1.8927   -1.1151 C   0  0  0  0  0  0  0  0  0  0  0  0
    1.1369   -1.3748   -0.0205 O   0  0  0  0  0  0  0  0  0  0  0  0
    0.0366   -2.1448   -0.5087 C   0  0  0  0  0  0  0  0  0  0  0  0
    1.1265   -3.4902   -2.2012 C   0  0  0  0  0  0  0  0  0  0  0  0
    2.5639   -3.0241   -1.9611 C   0  0  0  0  0  0  0  0  0  0  0  0
   -1.0950   -2.6125   -2.5976 C   0  0  0  0  0  0  0  0  0  0  0  0
   -0.9461   -2.4498   -4.1116 C   0  0  0  0  0  0  0  0  0  0  0  0
    1.5735    8.3175    0.6623 H   0  0  0  0  0  0  0  0  0  0  0  0
    2.3874    9.8814    0.4174 H   0  0  0  0  0  0  0  0  0  0  0  0
    0.6321    9.7413    0.1574 H   0  0  0  0  0  0  0  0  0  0  0  0
    1.8512    9.7817   -2.0015 H   0  0  0  0  0  0  0  0  0  0  0  0
    1.0373    8.2178   -1.7566 H   0  0  0  0  0  0  0  0  0  0  0  0
    6.5420    6.3431   -1.8624 H   0  0  0  0  0  0  0  0  0  0  0  0
    9.2504   10.5787   -0.4376 H   0  0  0  0  0  0  0  0  0  0  0  0
    9.9701   11.0545   -2.7410 H   0  0  0  0  0  0  0  0  0  0  0  0
    8.6519   10.2297   -4.6469 H   0  0  0  0  0  0  0  0  0  0  0  0
    5.3361    4.1818   -1.5130 H   0  0  0  0  0  0  0  0  0  0  0  0
    0.1091    4.5477   -0.8794 H   0  0  0  0  0  0  0  0  0  0  0  0
    2.8906    2.7659    0.3522 H   0  0  0  0  0  0  0  0  0  0  0  0
    2.9701    0.3358    0.7320 H   0  0  0  0  0  0  0  0  0  0  0  0
   -0.7919   -0.0992   -1.2474 H   0  0  0  0  0  0  0  0  0  0  0  0
   -0.8714    2.3300   -1.6331 H   0  0  0  0  0  0  0  0  0  0  0  0
    0.0036   -3.1020    0.0117 H   0  0  0  0  0  0  0  0  0  0  0  0
   -0.8927   -1.6031   -0.3322 H   0  0  0  0  0  0  0  0  0  0  0  0
    0.8943   -4.3144   -1.5268 H   0  0  0  0  0  0  0  0  0  0  0  0
    1.0206   -3.8244   -3.2333 H   0  0  0  0  0  0  0  0  0  0  0  0
    3.2556   -3.8147   -2.2520 H   0  0  0  0  0  0  0  0  0  0  0  0
    2.7607   -2.1321   -2.5558 H   0  0  0  0  0  0  0  0  0  0  0  0
    2.6993   -2.7935   -0.9044 H   0  0  0  0  0  0  0  0  0  0  0  0
   -1.4349   -3.6234   -2.3725 H   0  0  0  0  0  0  0  0  0  0  0  0
   -1.8236   -1.8927   -2.2247 H   0  0  0  0  0  0  0  0  0  0  0  0
   -0.6306   -1.4314   -4.3383 H   0  0  0  0  0  0  0  0  0  0  0  0
   -0.1990   -3.1523   -4.4808 H   0  0  0  0  0  0  0  0  0  0  0  0
   -1.9027   -2.6498   -4.5943 H   0  0  0  0  0  0  0  0  0  0  0  0
    0.2136   -2.3528   -1.9614 N   0  3  0  0  0  0  0  0  0  0  0  0
    0.6219   -1.5051   -2.3724 H   0  0  0  0  0  0  0  0  0  0  0  0
  1  2  1  0  0  0  0
  1 35  1  0  0  0  0
  1 36  1  0  0  0  0
  1 37  1  0  0  0  0
  2  3  1  0  0  0  0
  2 38  1  0  0  0  0
  2 39  1  0  0  0  0
  3  8  1  0  0  0  0
  3  4  1  0  0  0  0
  4 21  2  0  0  0  0
  4  5  1  0  0  0  0
  5  6  1  0  0  0  0
  5 18  2  0  0  0  0
  6  7  2  0  0  0  0
  6 40  1  0  0  0  0
  7  8  1  0  0  0  0
  7 10  1  0  0  0  0
  8  9  2  0  0  0  0
 10 15  2  0  0  0  0
 10 11  1  0  0  0  0
 11 12  2  0  0  0  0
 11 17  1  0  0  0  0
 12 13  1  0  0  0  0
 12 41  1  0  0  0  0
 13 14  2  0  0  0  0
 13 42  1  0  0  0  0
 14 15  1  0  0  0  0
 14 43  1  0  0  0  0
 15 16  1  0  0  0  0
 18 19  1  0  0  0  0
 18 44  1  0  0  0  0
 19 20  2  0  0  0  0
 20 21  1  0  0  0  0
 20 22  1  0  0  0  0
 22 23  1  0  0  0  0
 22 45  1  0  0  0  0
 23 28  2  0  0  0  0
 23 24  1  0  0  0  0
 24 25  2  0  0  0  0
 24 46  1  0  0  0  0
 25 26  1  0  0  0  0
 25 47  1  0  0  0  0
 26 27  2  0  0  0  0
 26 29  1  0  0  0  0
 27 28  1  0  0  0  0
 27 48  1  0  0  0  0
 28 49  1  0  0  0  0
 29 30  1  0  0  0  0
 30 50  1  0  0  0  0
 30 51  1  0  0  0  0
 30 62  1  0  0  0  0
 31 32  1  0  0  0  0
 31 52  1  0  0  0  0
 31 53  1  0  0  0  0
 31 62  1  0  0  0  0
 32 54  1  0  0  0  0
 32 55  1  0  0  0  0
 32 56  1  0  0  0  0
 33 34  1  0  0  0  0
 33 57  1  0  0  0  0
 33 58  1  0  0  0  0
 33 62  1  0  0  0  0
 34 59  1  0  0  0  0
 34 60  1  0  0  0  0
 34 61  1  0  0  0  0
 62 63  1  0  0  0  0
M  CHG  1  62   1
M  END
$$$$
ZINC03815488
  -OEChem-08230709403D

 63 66  0     0  0  0  0  0  0999 V2000
    1.4887    2.0457    2.9267 C   0  0  0  0  0  0  0  0  0  0  0  0
    0.1005    1.4243    2.7597 C   0  0  0  0  0  0  0  0  0  0  0  0
   -0.5898    3.1680    1.2281 C   0  0  0  0  0  0  0  0  0  0  0  0
   -1.7843    3.6452    2.0567 C   0  0  0  0  0  0  0  0  0  0  0  0
    0.4705    1.1628    0.3811 C   0  0  0  0  0  0  0  0  0  0  0  0
    0.4361   -0.3651    0.4536 C   0  0  0  0  0  0  0  0  0  0  0  0
   -0.8750   -0.8282    0.1240 O   0  0  0  0  0  0  0  0  0  0  0  0
   -1.0772   -2.1720    0.1412 C   0  0  0  0  0  0  0  0  0  0  0  0
   -0.0325   -3.0273    0.4635 C   0  0  0  0  0  0  0  0  0  0  0  0
   -0.2376   -4.3936    0.4862 C   0  0  0  0  0  0  0  0  0  0  0  0
   -1.4800   -4.9135    0.1781 C   0  0  0  0  0  0  0  0  0  0  0  0
   -2.5279   -4.0626   -0.1503 C   0  0  0  0  0  0  0  0  0  0  0  0
   -2.3249   -2.6893   -0.1684 C   0  0  0  0  0  0  0  0  0  0  0  0
   -3.7850   -4.5884   -0.4625 N   0  0  0  0  0  0  0  0  0  0  0  0
   -3.8828   -5.7643   -1.1815 C   0  0  0  0  0  0  0  0  0  0  0  0
   -2.7732   -6.3146   -1.6626 N   0  0  0  0  0  0  0  0  0  0  0  0
   -2.8115   -7.4398   -2.3509 C   0  0  0  0  0  0  0  0  0  0  0  0
   -4.0566   -8.0459   -2.5785 C   0  0  0  0  0  0  0  0  0  0  0  0
   -4.1623   -9.2485   -3.3137 C   0  0  0  0  0  0  0  0  0  0  0  0
   -5.3999   -9.8006   -3.5087 C   0  0  0  0  0  0  0  0  0  0  0  0
   -6.5800   -9.1343   -2.9535 C   0  0  0  0  0  0  0  0  0  0  0  0
   -7.6849   -9.6187   -3.1219 O   0  0  0  0  0  0  0  0  0  0  0  0
   -6.4496   -7.9887   -2.2572 N   0  0  0  0  0  0  0  0  0  0  0  0
   -5.2134   -7.4284   -2.0564 C   0  0  0  0  0  0  0  0  0  0  0  0
   -5.0794   -6.2987   -1.3704 N   0  0  0  0  0  0  0  0  0  0  0  0
   -7.6400   -7.3344   -1.7083 C   0  0  0  0  0  0  0  0  0  0  0  0
   -5.5442  -11.0605   -4.2749 C   0  0  0  0  0  0  0  0  0  0  0  0
   -5.7399  -11.0222   -5.6560 C   0  0  0  0  0  0  0  0  0  0  0  0
   -5.8692  -12.2005   -6.3649 C   0  0  0  0  0  0  0  0  0  0  0  0
   -5.8148  -13.4163   -5.7074 C   0  0  0  0  0  0  0  0  0  0  0  0
   -5.6263  -13.4611   -4.3378 C   0  0  0  0  0  0  0  0  0  0  0  0
   -5.4907  -12.2903   -3.6177 C   0  0  0  0  0  0  0  0  0  0  0  0
   -5.2547  -12.3486   -1.8988 Cl  0  0  0  0  0  0  0  0  0  0  0  0
   -5.8150   -9.4972   -6.4820 Cl  0  0  0  0  0  0  0  0  0  0  0  0
    1.4066    3.1321    2.8955 H   0  0  0  0  0  0  0  0  0  0  0  0
    1.9105    1.7406    3.8843 H   0  0  0  0  0  0  0  0  0  0  0  0
    2.1379    1.7070    2.1193 H   0  0  0  0  0  0  0  0  0  0  0  0
   -0.5761    1.8407    3.5060 H   0  0  0  0  0  0  0  0  0  0  0  0
    0.1675    0.3445    2.8921 H   0  0  0  0  0  0  0  0  0  0  0  0
    0.3098    3.6906    1.5532 H   0  0  0  0  0  0  0  0  0  0  0  0
   -0.7715    3.3784    0.1742 H   0  0  0  0  0  0  0  0  0  0  0  0
   -2.6602    3.0449    1.8106 H   0  0  0  0  0  0  0  0  0  0  0  0
   -1.5568    3.5381    3.1173 H   0  0  0  0  0  0  0  0  0  0  0  0
   -1.9868    4.6925    1.8325 H   0  0  0  0  0  0  0  0  0  0  0  0
    1.4901    1.5114    0.5452 H   0  0  0  0  0  0  0  0  0  0  0  0
    0.1292    1.4877   -0.6017 H   0  0  0  0  0  0  0  0  0  0  0  0
    1.1558   -0.7787   -0.2528 H   0  0  0  0  0  0  0  0  0  0  0  0
    0.6918   -0.6868    1.4632 H   0  0  0  0  0  0  0  0  0  0  0  0
    0.9410   -2.6242    0.7008 H   0  0  0  0  0  0  0  0  0  0  0  0
    0.5760   -5.0566    0.7409 H   0  0  0  0  0  0  0  0  0  0  0  0
   -1.6367   -5.9819    0.1929 H   0  0  0  0  0  0  0  0  0  0  0  0
   -3.1377   -2.0256   -0.4237 H   0  0  0  0  0  0  0  0  0  0  0  0
   -4.5886   -4.1279   -0.1743 H   0  0  0  0  0  0  0  0  0  0  0  0
   -1.9043   -7.8827   -2.7346 H   0  0  0  0  0  0  0  0  0  0  0  0
   -3.2801   -9.7251   -3.7149 H   0  0  0  0  0  0  0  0  0  0  0  0
   -8.0388   -6.6323   -2.4404 H   0  0  0  0  0  0  0  0  0  0  0  0
   -8.3943   -8.0867   -1.4778 H   0  0  0  0  0  0  0  0  0  0  0  0
   -7.3724   -6.7976   -0.7982 H   0  0  0  0  0  0  0  0  0  0  0  0
   -6.0166  -12.1724   -7.4344 H   0  0  0  0  0  0  0  0  0  0  0  0
   -5.9203  -14.3347   -6.2659 H   0  0  0  0  0  0  0  0  0  0  0  0
   -5.5854  -14.4135   -3.8304 H   0  0  0  0  0  0  0  0  0  0  0  0
   -0.4363    1.7095    1.4124 N   0  3  0  0  0  0  0  0  0  0  0  0
   -1.3561    1.2629    1.3184 H   0  0  0  0  0  0  0  0  0  0  0  0
  1  2  1  0  0  0  0
  1 35  1  0  0  0  0
  1 36  1  0  0  0  0
  1 37  1  0  0  0  0
  2 38  1  0  0  0  0
  2 39  1  0  0  0  0
  2 62  1  0  0  0  0
  3  4  1  0  0  0  0
  3 40  1  0  0  0  0
  3 41  1  0  0  0  0
  3 62  1  0  0  0  0
  4 42  1  0  0  0  0
  4 43  1  0  0  0  0
  4 44  1  0  0  0  0
  5  6  1  0  0  0  0
  5 45  1  0  0  0  0
  5 46  1  0  0  0  0
  5 62  1  0  0  0  0
  6  7  1  0  0  0  0
  6 47  1  0  0  0  0
  6 48  1  0  0  0  0
  7  8  1  0  0  0  0
  8 13  2  0  0  0  0
  8  9  1  0  0  0  0
  9 10  2  0  0  0  0
  9 49  1  0  0  0  0
 10 11  1  0  0  0  0
 10 50  1  0  0  0  0
 11 12  2  0  0  0  0
 11 51  1  0  0  0  0
 12 13  1  0  0  0  0
 12 14  1  0  0  0  0
 13 52  1  0  0  0  0
 14 15  1  0  0  0  0
 14 53  1  0  0  0  0
 15 25  2  0  0  0  0
 15 16  1  0  0  0  0
 16 17  2  0  0  0  0
 17 18  1  0  0  0  0
 17 54  1  0  0  0  0
 18 24  2  0  0  0  0
 18 19  1  0  0  0  0
 19 20  2  0  0  0  0
 19 55  1  0  0  0  0
 20 21  1  0  0  0  0
 20 27  1  0  0  0  0
 21 22  2  0  0  0  0
 21 23  1  0  0  0  0
 23 24  1  0  0  0  0
 23 26  1  0  0  0  0
 24 25  1  0  0  0  0
 26 56  1  0  0  0  0
 26 57  1  0  0  0  0
 26 58  1  0  0  0  0
 27 32  2  0  0  0  0
 27 28  1  0  0  0  0
 28 29  2  0  0  0  0
 28 34  1  0  0  0  0
 29 30  1  0  0  0  0
 29 59  1  0  0  0  0
 30 31  2  0  0  0  0
 30 60  1  0  0  0  0
 31 32  1  0  0  0  0
 31 61  1  0  0  0  0
 32 33  1  0  0  0  0
 62 63  1  0  0  0  0
M  CHG  1  62   1
M  END
$$$$
ZINC03815489
  -OEChem-08230709403D

 60 63  0     0  0  0  0  0  0999 V2000
    2.0709    8.2772    0.4276 C   0  0  0  0  0  0  0  0  0  0  0  0
    3.3654    7.5914    0.4148 N   0  0  0  0  0  0  0  0  0  0  0  0
    3.4085    6.2243    0.3059 C   0  0  0  0  0  0  0  0  0  0  0  0
    4.6476    5.5480    0.2920 C   0  0  0  0  0  0  0  0  0  0  0  0
    5.8559    6.2749    0.3904 C   0  0  0  0  0  0  0  0  0  0  0  0
    5.8030    7.6389    0.4978 C   0  0  0  0  0  0  0  0  0  0  0  0
    4.5011    8.3093    0.5096 C   0  0  0  0  0  0  0  0  0  0  0  0
    4.4450    9.5224    0.6053 O   0  0  0  0  0  0  0  0  0  0  0  0
    7.0517    8.4294    0.6022 C   0  0  0  0  0  0  0  0  0  0  0  0
    7.6001    8.7111    1.8540 C   0  0  0  0  0  0  0  0  0  0  0  0
    8.7666    9.4453    1.9441 C   0  0  0  0  0  0  0  0  0  0  0  0
    9.3860    9.9087    0.7974 C   0  0  0  0  0  0  0  0  0  0  0  0
    8.8450    9.6370   -0.4464 C   0  0  0  0  0  0  0  0  0  0  0  0
    7.6814    8.9002   -0.5507 C   0  0  0  0  0  0  0  0  0  0  0  0
    7.0034    8.5613   -2.1124 Cl  0  0  0  0  0  0  0  0  0  0  0  0
    6.8210    8.1355    3.2946 Cl  0  0  0  0  0  0  0  0  0  0  0  0
    4.6477    4.1496    0.1787 C   0  0  0  0  0  0  0  0  0  0  0  0
    3.4895    3.5229    0.0897 N   0  0  0  0  0  0  0  0  0  0  0  0
    2.3421    4.1926    0.1060 C   0  0  0  0  0  0  0  0  0  0  0  0
    2.2918    5.5122    0.2062 N   0  0  0  0  0  0  0  0  0  0  0  0
    1.1585    3.4870    0.0093 N   0  0  0  0  0  0  0  0  0  0  0  0
    1.1757    2.0869    0.0133 C   0  0  0  0  0  0  0  0  0  0  0  0
    2.1234    1.4060    0.7660 C   0  0  0  0  0  0  0  0  0  0  0  0
    2.1394    0.0252    0.7698 C   0  0  0  0  0  0  0  0  0  0  0  0
    1.2089   -0.6817    0.0223 C   0  0  0  0  0  0  0  0  0  0  0  0
    0.2619   -0.0022   -0.7299 C   0  0  0  0  0  0  0  0  0  0  0  0
    0.2448    1.3786   -0.7351 C   0  0  0  0  0  0  0  0  0  0  0  0
    1.2247   -2.0414    0.0273 O   0  0  0  0  0  0  0  0  0  0  0  0
    0.2377   -2.7046   -0.7652 C   0  0  0  0  0  0  0  0  0  0  0  0
    0.4120   -4.2190   -0.6345 C   0  0  0  0  0  0  0  0  0  0  0  0
   -0.6448   -4.9291   -1.4829 C   0  0  0  0  0  0  0  0  0  0  0  0
   -0.7695   -6.8306    0.0109 C   0  0  0  0  0  0  0  0  0  0  0  0
   -1.3127   -7.0954   -2.3337 C   0  0  0  0  0  0  0  0  0  0  0  0
    1.7162    8.3647    1.4546 H   0  0  0  0  0  0  0  0  0  0  0  0
    2.1823    9.2718   -0.0042 H   0  0  0  0  0  0  0  0  0  0  0  0
    1.3510    7.7055   -0.1580 H   0  0  0  0  0  0  0  0  0  0  0  0
    6.8065    5.7624    0.3799 H   0  0  0  0  0  0  0  0  0  0  0  0
    9.1939    9.6612    2.9121 H   0  0  0  0  0  0  0  0  0  0  0  0
   10.2958   10.4856    0.8735 H   0  0  0  0  0  0  0  0  0  0  0  0
    9.3333   10.0020   -1.3378 H   0  0  0  0  0  0  0  0  0  0  0  0
    5.5758    3.5975    0.1643 H   0  0  0  0  0  0  0  0  0  0  0  0
    0.3154    3.9615   -0.0615 H   0  0  0  0  0  0  0  0  0  0  0  0
    2.8449    1.9561    1.3519 H   0  0  0  0  0  0  0  0  0  0  0  0
    2.8763   -0.5046    1.3552 H   0  0  0  0  0  0  0  0  0  0  0  0
   -0.4620   -0.5533   -1.3119 H   0  0  0  0  0  0  0  0  0  0  0  0
   -0.4923    1.9074   -1.3211 H   0  0  0  0  0  0  0  0  0  0  0  0
   -0.7564   -2.4221   -0.4187 H   0  0  0  0  0  0  0  0  0  0  0  0
    0.3547   -2.4142   -1.8092 H   0  0  0  0  0  0  0  0  0  0  0  0
    1.4061   -4.5016   -0.9810 H   0  0  0  0  0  0  0  0  0  0  0  0
    0.2950   -4.5095    0.4096 H   0  0  0  0  0  0  0  0  0  0  0  0
   -1.6389   -4.6466   -1.1364 H   0  0  0  0  0  0  0  0  0  0  0  0
   -0.5278   -4.6387   -2.5270 H   0  0  0  0  0  0  0  0  0  0  0  0
   -1.7978   -6.5738    0.2655 H   0  0  0  0  0  0  0  0  0  0  0  0
   -0.6379   -7.9106    0.0759 H   0  0  0  0  0  0  0  0  0  0  0  0
   -0.0895   -6.3392    0.7068 H   0  0  0  0  0  0  0  0  0  0  0  0
   -1.0276   -6.7965   -3.3424 H   0  0  0  0  0  0  0  0  0  0  0  0
   -1.1696   -8.1698   -2.2190 H   0  0  0  0  0  0  0  0  0  0  0  0
   -2.3607   -6.8483   -2.1641 H   0  0  0  0  0  0  0  0  0  0  0  0
   -0.4500   -6.3894   -1.3631 N   0  3  0  0  0  0  0  0  0  0  0  0
    0.5316   -6.6127   -1.5653 H   0  0  0  0  0  0  0  0  0  0  0  0
  1  2  1  0  0  0  0
  1 34  1  0  0  0  0
  1 35  1  0  0  0  0
  1 36  1  0  0  0  0
  2  7  1  0  0  0  0
  2  3  1  0  0  0  0
  3 20  2  0  0  0  0
  3  4  1  0  0  0  0
  4  5  1  0  0  0  0
  4 17  2  0  0  0  0
  5  6  2  0  0  0  0
  5 37  1  0  0  0  0
  6  7  1  0  0  0  0
  6  9  1  0  0  0  0
  7  8  2  0  0  0  0
  9 14  2  0  0  0  0
  9 10  1  0  0  0  0
 10 11  2  0  0  0  0
 10 16  1  0  0  0  0
 11 12  1  0  0  0  0
 11 38  1  0  0  0  0
 12 13  2  0  0  0  0
 12 39  1  0  0  0  0
 13 14  1  0  0  0  0
 13 40  1  0  0  0  0
 14 15  1  0  0  0  0
 17 18  1  0  0  0  0
 17 41  1  0  0  0  0
 18 19  2  0  0  0  0
 19 20  1  0  0  0  0
 19 21  1  0  0  0  0
 21 22  1  0  0  0  0
 21 42  1  0  0  0  0
 22 27  2  0  0  0  0
 22 23  1  0  0  0  0
 23 24  2  0  0  0  0
 23 43  1  0  0  0  0
 24 25  1  0  0  0  0
 24 44  1  0  0  0  0
 25 26  2  0  0  0  0
 25 28  1  0  0  0  0
 26 27  1  0  0  0  0
 26 45  1  0  0  0  0
 27 46  1  0  0  0  0
 28 29  1  0  0  0  0
 29 30  1  0  0  0  0
 29 47  1  0  0  0  0
 29 48  1  0  0  0  0
 30 31  1  0  0  0  0
 30 49  1  0  0  0  0
 30 50  1  0  0  0  0
 31 51  1  0  0  0  0
 31 52  1  0  0  0  0
 31 59  1  0  0  0  0
 32 53  1  0  0  0  0
 32 54  1  0  0  0  0
 32 55  1  0  0  0  0
 32 59  1  0  0  0  0
 33 56  1  0  0  0  0
 33 57  1  0  0  0  0
 33 58  1  0  0  0  0
 33 59  1  0  0  0  0
 59 60  1  0  0  0  0
M  CHG  1  59   1
M  END
$$$$
ZINC03815490
  -OEChem-08230709403D

 57 60  0     0  0  0  0  0  0999 V2000
    1.8775    8.5250   -0.0210 C   0  0  0  0  0  0  0  0  0  0  0  0
    3.2048    7.9124   -0.1158 N   0  0  0  0  0  0  0  0  0  0  0  0
    3.3189    6.5470   -0.1881 C   0  0  0  0  0  0  0  0  0  0  0  0
    4.5906    5.9406   -0.2799 C   0  0  0  0  0  0  0  0  0  0  0  0
    5.7585    6.7367   -0.2981 C   0  0  0  0  0  0  0  0  0  0  0  0
    5.6348    8.0984   -0.2265 C   0  0  0  0  0  0  0  0  0  0  0  0
    4.3008    8.6952   -0.1317 C   0  0  0  0  0  0  0  0  0  0  0  0
    4.1817    9.9058   -0.0671 O   0  0  0  0  0  0  0  0  0  0  0  0
    6.8397    8.9603   -0.2438 C   0  0  0  0  0  0  0  0  0  0  0  0
    7.4655    9.3139    0.9522 C   0  0  0  0  0  0  0  0  0  0  0  0
    8.5907   10.1146    0.9288 C   0  0  0  0  0  0  0  0  0  0  0  0
    9.0920   10.5732   -0.2761 C   0  0  0  0  0  0  0  0  0  0  0  0
    8.4736   10.2302   -1.4650 C   0  0  0  0  0  0  0  0  0  0  0  0
    7.3503    9.4267   -1.4559 C   0  0  0  0  0  0  0  0  0  0  0  0
    6.5749    8.9984   -2.9489 Cl  0  0  0  0  0  0  0  0  0  0  0  0
    6.8345    8.7443    2.4658 Cl  0  0  0  0  0  0  0  0  0  0  0  0
    4.6632    4.5414   -0.3522 C   0  0  0  0  0  0  0  0  0  0  0  0
    3.5400    3.8486   -0.3315 N   0  0  0  0  0  0  0  0  0  0  0  0
    2.3604    4.4534   -0.2443 C   0  0  0  0  0  0  0  0  0  0  0  0
    2.2412    5.7707   -0.1788 N   0  0  0  0  0  0  0  0  0  0  0  0
    1.2158    3.6801   -0.2270 N   0  0  0  0  0  0  0  0  0  0  0  0
    1.3147    2.2837   -0.1981 C   0  0  0  0  0  0  0  0  0  0  0  0
    2.3614    1.6753    0.4821 C   0  0  0  0  0  0  0  0  0  0  0  0
    2.4580    0.2981    0.5105 C   0  0  0  0  0  0  0  0  0  0  0  0
    1.5096   -0.4776   -0.1399 C   0  0  0  0  0  0  0  0  0  0  0  0
    0.4637    0.1293   -0.8196 C   0  0  0  0  0  0  0  0  0  0  0  0
    0.3659    1.5064   -0.8493 C   0  0  0  0  0  0  0  0  0  0  0  0
    1.6049   -1.8338   -0.1107 O   0  0  0  0  0  0  0  0  0  0  0  0
    0.5938   -2.5702   -0.8017 C   0  0  0  0  0  0  0  0  0  0  0  0
    0.8665   -4.0689   -0.6582 C   0  0  0  0  0  0  0  0  0  0  0  0
   -0.6587   -4.5218    1.1670 C   0  0  0  0  0  0  0  0  0  0  0  0
    1.4343   -5.7290    1.0105 C   0  0  0  0  0  0  0  0  0  0  0  0
    1.5984    8.6269    1.0277 H   0  0  0  0  0  0  0  0  0  0  0  0
    1.8973    9.5093   -0.4890 H   0  0  0  0  0  0  0  0  0  0  0  0
    1.1491    7.8948   -0.5312 H   0  0  0  0  0  0  0  0  0  0  0  0
    6.7336    6.2778   -0.3686 H   0  0  0  0  0  0  0  0  0  0  0  0
    9.0780   10.3862    1.8535 H   0  0  0  0  0  0  0  0  0  0  0  0
    9.9699   11.2021   -0.2887 H   0  0  0  0  0  0  0  0  0  0  0  0
    8.8697   10.5919   -2.4024 H   0  0  0  0  0  0  0  0  0  0  0  0
    5.6181    4.0418   -0.4237 H   0  0  0  0  0  0  0  0  0  0  0  0
    0.3436    4.1045   -0.2349 H   0  0  0  0  0  0  0  0  0  0  0  0
    3.0972    2.2790    0.9925 H   0  0  0  0  0  0  0  0  0  0  0  0
    3.2720   -0.1752    1.0394 H   0  0  0  0  0  0  0  0  0  0  0  0
   -0.2741   -0.4753   -1.3260 H   0  0  0  0  0  0  0  0  0  0  0  0
   -0.4482    1.9788   -1.3789 H   0  0  0  0  0  0  0  0  0  0  0  0
   -0.3816   -2.3360   -0.3755 H   0  0  0  0  0  0  0  0  0  0  0  0
    0.6039   -2.2986   -1.8573 H   0  0  0  0  0  0  0  0  0  0  0  0
    0.1411   -4.6284   -1.2489 H   0  0  0  0  0  0  0  0  0  0  0  0
    1.8729   -4.2908   -1.0133 H   0  0  0  0  0  0  0  0  0  0  0  0
   -1.1808   -5.2602    0.5586 H   0  0  0  0  0  0  0  0  0  0  0  0
   -0.7164   -4.8095    2.2168 H   0  0  0  0  0  0  0  0  0  0  0  0
   -1.1237   -3.5452    1.0318 H   0  0  0  0  0  0  0  0  0  0  0  0
    2.5045   -5.6063    0.8433 H   0  0  0  0  0  0  0  0  0  0  0  0
    1.2604   -6.0340    2.0423 H   0  0  0  0  0  0  0  0  0  0  0  0
    1.0463   -6.4920    0.3357 H   0  0  0  0  0  0  0  0  0  0  0  0
    0.7624   -4.4346    0.7702 N   0  3  0  0  0  0  0  0  0  0  0  0
    1.2224   -3.7103    1.3342 H   0  0  0  0  0  0  0  0  0  0  0  0
  1  2  1  0  0  0  0
  1 33  1  0  0  0  0
  1 34  1  0  0  0  0
  1 35  1  0  0  0  0
  2  7  1  0  0  0  0
  2  3  1  0  0  0  0
  3 20  2  0  0  0  0
  3  4  1  0  0  0  0
  4  5  1  0  0  0  0
  4 17  2  0  0  0  0
  5  6  2  0  0  0  0
  5 36  1  0  0  0  0
  6  7  1  0  0  0  0
  6  9  1  0  0  0  0
  7  8  2  0  0  0  0
  9 14  2  0  0  0  0
  9 10  1  0  0  0  0
 10 11  2  0  0  0  0
 10 16  1  0  0  0  0
 11 12  1  0  0  0  0
 11 37  1  0  0  0  0
 12 13  2  0  0  0  0
 12 38  1  0  0  0  0
 13 14  1  0  0  0  0
 13 39  1  0  0  0  0
 14 15  1  0  0  0  0
 17 18  1  0  0  0  0
 17 40  1  0  0  0  0
 18 19  2  0  0  0  0
 19 20  1  0  0  0  0
 19 21  1  0  0  0  0
 21 22  1  0  0  0  0
 21 41  1  0  0  0  0
 22 27  2  0  0  0  0
 22 23  1  0  0  0  0
 23 24  2  0  0  0  0
 23 42  1  0  0  0  0
 24 25  1  0  0  0  0
 24 43  1  0  0  0  0
 25 26  2  0  0  0  0
 25 28  1  0  0  0  0
 26 27  1  0  0  0  0
 26 44  1  0  0  0  0
 27 45  1  0  0  0  0
 28 29  1  0  0  0  0
 29 30  1  0  0  0  0
 29 46  1  0  0  0  0
 29 47  1  0  0  0  0
 30 48  1  0  0  0  0
 30 49  1  0  0  0  0
 30 56  1  0  0  0  0
 31 50  1  0  0  0  0
 31 51  1  0  0  0  0
 31 52  1  0  0  0  0
 31 56  1  0  0  0  0
 32 53  1  0  0  0  0
 32 54  1  0  0  0  0
 32 55  1  0  0  0  0
 32 56  1  0  0  0  0
 56 57  1  0  0  0  0
M  CHG  1  56   1
M  END
$$$$
ZINC03815491
  -OEChem-08230709403D

 64 68  0     0  0  0  0  0  0999 V2000
   -2.4742    7.3448   -1.1073 C   0  0  0  0  0  0  0  0  0  0  0  0
   -3.3853    6.4502   -0.3891 N   0  0  0  0  0  0  0  0  0  0  0  0
   -3.0179    5.1483   -0.1596 C   0  0  0  0  0  0  0  0  0  0  0  0
   -3.8841    4.2730    0.5308 C   0  0  0  0  0  0  0  0  0  0  0  0
   -5.1391    4.7317    0.9920 C   0  0  0  0  0  0  0  0  0  0  0  0
   -5.4970    6.0325    0.7588 C   0  0  0  0  0  0  0  0  0  0  0  0
   -4.5749    6.9141    0.0395 C   0  0  0  0  0  0  0  0  0  0  0  0
   -4.8853    8.0729   -0.1719 O   0  0  0  0  0  0  0  0  0  0  0  0
   -6.8053    6.5438    1.2299 C   0  0  0  0  0  0  0  0  0  0  0  0
   -7.9273    6.4643    0.4039 C   0  0  0  0  0  0  0  0  0  0  0  0
   -9.1450    6.9383    0.8510 C   0  0  0  0  0  0  0  0  0  0  0  0
   -9.2518    7.5000    2.1106 C   0  0  0  0  0  0  0  0  0  0  0  0
   -8.1424    7.5866    2.9323 C   0  0  0  0  0  0  0  0  0  0  0  0
   -6.9198    7.1119    2.4992 C   0  0  0  0  0  0  0  0  0  0  0  0
   -5.5284    7.2225    3.5315 Cl  0  0  0  0  0  0  0  0  0  0  0  0
   -7.7940    5.7657   -1.1797 Cl  0  0  0  0  0  0  0  0  0  0  0  0
   -3.4701    2.9498    0.7451 C   0  0  0  0  0  0  0  0  0  0  0  0
   -2.2877    2.5766    0.2926 N   0  0  0  0  0  0  0  0  0  0  0  0
   -1.4985    3.4281   -0.3533 C   0  0  0  0  0  0  0  0  0  0  0  0
   -1.8435    4.6873   -0.5750 N   0  0  0  0  0  0  0  0  0  0  0  0
   -0.2706    2.9852   -0.8054 N   0  0  0  0  0  0  0  0  0  0  0  0
    0.0770    1.6348   -0.6776 C   0  0  0  0  0  0  0  0  0  0  0  0
   -0.9027    0.6543   -0.7620 C   0  0  0  0  0  0  0  0  0  0  0  0
   -0.5590   -0.6773   -0.6363 C   0  0  0  0  0  0  0  0  0  0  0  0
    0.7645   -1.0355   -0.4262 C   0  0  0  0  0  0  0  0  0  0  0  0
    1.7438   -0.0566   -0.3418 C   0  0  0  0  0  0  0  0  0  0  0  0
    1.4017    1.2754   -0.4668 C   0  0  0  0  0  0  0  0  0  0  0  0
    1.1022   -2.3469   -0.3025 O   0  0  0  0  0  0  0  0  0  0  0  0
    2.4834   -2.6438   -0.0877 C   0  0  0  0  0  0  0  0  0  0  0  0
    2.6679   -4.1583    0.0257 C   0  0  0  0  0  0  0  0  0  0  0  0
    2.0411   -6.2182   -1.0810 C   0  0  0  0  0  0  0  0  0  0  0  0
    1.5568   -6.8091   -2.4069 C   0  0  0  0  0  0  0  0  0  0  0  0
    2.6408   -6.6183   -3.4714 C   0  0  0  0  0  0  0  0  0  0  0  0
    2.9605   -5.1265   -3.6014 C   0  0  0  0  0  0  0  0  0  0  0  0
    3.4041   -4.5844   -2.2408 C   0  0  0  0  0  0  0  0  0  0  0  0
   -2.6775    7.2884   -2.1766 H   0  0  0  0  0  0  0  0  0  0  0  0
   -2.6231    8.3681   -0.7626 H   0  0  0  0  0  0  0  0  0  0  0  0
   -1.4441    7.0436   -0.9169 H   0  0  0  0  0  0  0  0  0  0  0  0
   -5.8053    4.0663    1.5210 H   0  0  0  0  0  0  0  0  0  0  0  0
  -10.0150    6.8741    0.2142 H   0  0  0  0  0  0  0  0  0  0  0  0
  -10.2055    7.8730    2.4539 H   0  0  0  0  0  0  0  0  0  0  0  0
   -8.2323    8.0266    3.9145 H   0  0  0  0  0  0  0  0  0  0  0  0
   -4.1054    2.2513    1.2695 H   0  0  0  0  0  0  0  0  0  0  0  0
    0.3508    3.6096   -1.2113 H   0  0  0  0  0  0  0  0  0  0  0  0
   -1.9325    0.9327   -0.9303 H   0  0  0  0  0  0  0  0  0  0  0  0
   -1.3208   -1.4400   -0.7019 H   0  0  0  0  0  0  0  0  0  0  0  0
    2.7740   -0.3363   -0.1779 H   0  0  0  0  0  0  0  0  0  0  0  0
    2.1641    2.0374   -0.4007 H   0  0  0  0  0  0  0  0  0  0  0  0
    3.0704   -2.2680   -0.9258 H   0  0  0  0  0  0  0  0  0  0  0  0
    2.8185   -2.1669    0.8333 H   0  0  0  0  0  0  0  0  0  0  0  0
    3.7043   -4.3801    0.2802 H   0  0  0  0  0  0  0  0  0  0  0  0
    2.0115   -4.5470    0.8042 H   0  0  0  0  0  0  0  0  0  0  0  0
    2.9450   -6.7366   -0.7609 H   0  0  0  0  0  0  0  0  0  0  0  0
    1.2658   -6.3397   -0.3245 H   0  0  0  0  0  0  0  0  0  0  0  0
    0.6452   -6.3004   -2.7206 H   0  0  0  0  0  0  0  0  0  0  0  0
    1.3547   -7.8727   -2.2799 H   0  0  0  0  0  0  0  0  0  0  0  0
    2.2829   -6.9989   -4.4280 H   0  0  0  0  0  0  0  0  0  0  0  0
    3.5403   -7.1594   -3.1776 H   0  0  0  0  0  0  0  0  0  0  0  0
    2.0710   -4.5914   -3.9339 H   0  0  0  0  0  0  0  0  0  0  0  0
    3.7618   -4.9880   -4.3272 H   0  0  0  0  0  0  0  0  0  0  0  0
    3.6188   -3.5192   -2.3267 H   0  0  0  0  0  0  0  0  0  0  0  0
    4.3015   -5.1106   -1.9154 H   0  0  0  0  0  0  0  0  0  0  0  0
    2.3081   -4.7760   -1.2674 N   0  3  0  0  0  0  0  0  0  0  0  0
    1.4597   -4.3241   -1.6281 H   0  0  0  0  0  0  0  0  0  0  0  0
  1  2  1  0  0  0  0
  1 36  1  0  0  0  0
  1 37  1  0  0  0  0
  1 38  1  0  0  0  0
  2  7  1  0  0  0  0
  2  3  1  0  0  0  0
  3 20  2  0  0  0  0
  3  4  1  0  0  0  0
  4  5  1  0  0  0  0
  4 17  2  0  0  0  0
  5  6  2  0  0  0  0
  5 39  1  0  0  0  0
  6  7  1  0  0  0  0
  6  9  1  0  0  0  0
  7  8  2  0  0  0  0
  9 14  2  0  0  0  0
  9 10  1  0  0  0  0
 10 11  2  0  0  0  0
 10 16  1  0  0  0  0
 11 12  1  0  0  0  0
 11 40  1  0  0  0  0
 12 13  2  0  0  0  0
 12 41  1  0  0  0  0
 13 14  1  0  0  0  0
 13 42  1  0  0  0  0
 14 15  1  0  0  0  0
 17 18  1  0  0  0  0
 17 43  1  0  0  0  0
 18 19  2  0  0  0  0
 19 20  1  0  0  0  0
 19 21  1  0  0  0  0
 21 22  1  0  0  0  0
 21 44  1  0  0  0  0
 22 27  2  0  0  0  0
 22 23  1  0  0  0  0
 23 24  2  0  0  0  0
 23 45  1  0  0  0  0
 24 25  1  0  0  0  0
 24 46  1  0  0  0  0
 25 26  2  0  0  0  0
 25 28  1  0  0  0  0
 26 27  1  0  0  0  0
 26 47  1  0  0  0  0
 27 48  1  0  0  0  0
 28 29  1  0  0  0  0
 29 30  1  0  0  0  0
 29 49  1  0  0  0  0
 29 50  1  0  0  0  0
 30 51  1  0  0  0  0
 30 52  1  0  0  0  0
 30 63  1  0  0  0  0
 31 32  1  0  0  0  0
 31 53  1  0  0  0  0
 31 54  1  0  0  0  0
 31 63  1  0  0  0  0
 32 33  1  0  0  0  0
 32 55  1  0  0  0  0
 32 56  1  0  0  0  0
 33 34  1  0  0  0  0
 33 57  1  0  0  0  0
 33 58  1  0  0  0  0
 34 35  1  0  0  0  0
 34 59  1  0  0  0  0
 34 60  1  0  0  0  0
 35 61  1  0  0  0  0
 35 62  1  0  0  0  0
 35 63  1  0  0  0  0
 63 64  1  0  0  0  0
M  CHG  1  63   1
M  END
$$$$
ZINC03815492
  -OEChem-08230709403D

 66 69  0     0  0  0  0  0  0999 V2000
   -0.8153   -7.4496   -0.3659 C   0  0  0  0  0  0  0  0  0  0  0  0
    0.3035   -7.0440   -1.3276 C   0  0  0  0  0  0  0  0  0  0  0  0
    0.6749   -5.6437   -1.0839 N   0  3  0  0  0  0  0  0  0  0  0  0
    1.7490   -5.2543   -2.0072 C   0  0  0  0  0  0  0  0  0  0  0  0
   -0.4946   -4.7819   -1.3018 C   0  0  0  0  0  0  0  0  0  0  0  0
   -1.0802   -5.0578   -2.6882 C   0  0  0  0  0  0  0  0  0  0  0  0
    1.1416   -5.4948    0.3010 C   0  0  0  0  0  0  0  0  0  0  0  0
    1.4765   -4.0266    0.5713 C   0  0  0  0  0  0  0  0  0  0  0  0
    0.2727   -3.2565    0.5757 O   0  0  0  0  0  0  0  0  0  0  0  0
    0.3948   -1.9214    0.8033 C   0  0  0  0  0  0  0  0  0  0  0  0
   -0.7339   -1.1152    0.8211 C   0  0  0  0  0  0  0  0  0  0  0  0
   -0.6107    0.2408    1.0512 C   0  0  0  0  0  0  0  0  0  0  0  0
    0.6435    0.7973    1.2653 C   0  0  0  0  0  0  0  0  0  0  0  0
    1.7729   -0.0106    1.2478 C   0  0  0  0  0  0  0  0  0  0  0  0
    1.6480   -1.3664    1.0171 C   0  0  0  0  0  0  0  0  0  0  0  0
    0.7694    2.1722    1.4983 N   0  0  0  0  0  0  0  0  0  0  0  0
   -0.2152    2.8480    2.1926 C   0  0  0  0  0  0  0  0  0  0  0  0
   -1.2126    2.1526    2.7287 N   0  0  0  0  0  0  0  0  0  0  0  0
   -2.1778    2.7502    3.4014 C   0  0  0  0  0  0  0  0  0  0  0  0
   -2.1334    4.1457    3.5430 C   0  0  0  0  0  0  0  0  0  0  0  0
   -3.1380    4.8421    4.2528 C   0  0  0  0  0  0  0  0  0  0  0  0
   -3.0496    6.2040    4.3635 C   0  0  0  0  0  0  0  0  0  0  0  0
   -1.9208    6.9037    3.7462 C   0  0  0  0  0  0  0  0  0  0  0  0
   -1.8342    8.1151    3.8401 O   0  0  0  0  0  0  0  0  0  0  0  0
   -0.9778    6.2144    3.0756 N   0  0  0  0  0  0  0  0  0  0  0  0
   -1.0582    4.8496    2.9596 C   0  0  0  0  0  0  0  0  0  0  0  0
   -0.1276    4.1645    2.3041 N   0  0  0  0  0  0  0  0  0  0  0  0
    0.1454    6.9291    2.4642 C   0  0  0  0  0  0  0  0  0  0  0  0
   -4.0867    6.9629    5.1006 C   0  0  0  0  0  0  0  0  0  0  0  0
   -5.2084    7.4504    4.4288 C   0  0  0  0  0  0  0  0  0  0  0  0
   -6.1738    8.1534    5.1227 C   0  0  0  0  0  0  0  0  0  0  0  0
   -6.0257    8.3829    6.4788 C   0  0  0  0  0  0  0  0  0  0  0  0
   -4.9136    7.9069    7.1496 C   0  0  0  0  0  0  0  0  0  0  0  0
   -3.9433    7.1983    6.4685 C   0  0  0  0  0  0  0  0  0  0  0  0
   -2.5481    6.6023    7.3122 Cl  0  0  0  0  0  0  0  0  0  0  0  0
   -5.3928    7.1692    2.7257 Cl  0  0  0  0  0  0  0  0  0  0  0  0
   -0.4690   -7.3391    0.6617 H   0  0  0  0  0  0  0  0  0  0  0  0
   -1.6830   -6.8102   -0.5277 H   0  0  0  0  0  0  0  0  0  0  0  0
   -1.0908   -8.4886   -0.5467 H   0  0  0  0  0  0  0  0  0  0  0  0
   -0.0428   -7.1545   -2.3552 H   0  0  0  0  0  0  0  0  0  0  0  0
    1.1713   -7.6835   -1.1658 H   0  0  0  0  0  0  0  0  0  0  0  0
    2.5994   -5.9239   -1.8785 H   0  0  0  0  0  0  0  0  0  0  0  0
    1.3874   -5.3193   -3.0334 H   0  0  0  0  0  0  0  0  0  0  0  0
    2.0573   -4.2306   -1.7947 H   0  0  0  0  0  0  0  0  0  0  0  0
   -1.2470   -4.9912   -0.5414 H   0  0  0  0  0  0  0  0  0  0  0  0
   -0.1929   -3.7366   -1.2363 H   0  0  0  0  0  0  0  0  0  0  0  0
   -0.3278   -4.8485   -3.4486 H   0  0  0  0  0  0  0  0  0  0  0  0
   -1.3819   -6.1031   -2.7537 H   0  0  0  0  0  0  0  0  0  0  0  0
   -1.9479   -4.4183   -2.8499 H   0  0  0  0  0  0  0  0  0  0  0  0
    2.0326   -6.1044    0.4517 H   0  0  0  0  0  0  0  0  0  0  0  0
    0.3584   -5.8208    0.9854 H   0  0  0  0  0  0  0  0  0  0  0  0
    2.1419   -3.6562   -0.2086 H   0  0  0  0  0  0  0  0  0  0  0  0
    1.9678   -3.9384    1.5402 H   0  0  0  0  0  0  0  0  0  0  0  0
   -1.7092   -1.5481    0.6546 H   0  0  0  0  0  0  0  0  0  0  0  0
   -1.4890    0.8692    1.0603 H   0  0  0  0  0  0  0  0  0  0  0  0
    2.7486    0.4213    1.4146 H   0  0  0  0  0  0  0  0  0  0  0  0
    2.5262   -1.9948    1.0034 H   0  0  0  0  0  0  0  0  0  0  0  0
    1.5479    2.6501    1.1721 H   0  0  0  0  0  0  0  0  0  0  0  0
   -2.9846    2.1774    3.8343 H   0  0  0  0  0  0  0  0  0  0  0  0
   -3.9630    4.3082    4.7008 H   0  0  0  0  0  0  0  0  0  0  0  0
   -0.1158    7.2120    1.4444 H   0  0  0  0  0  0  0  0  0  0  0  0
    0.3652    7.8251    3.0447 H   0  0  0  0  0  0  0  0  0  0  0  0
    1.0225    6.2821    2.4485 H   0  0  0  0  0  0  0  0  0  0  0  0
   -7.0444    8.5277    4.6048 H   0  0  0  0  0  0  0  0  0  0  0  0
   -6.7816    8.9364    7.0160 H   0  0  0  0  0  0  0  0  0  0  0  0
   -4.8036    8.0901    8.2083 H   0  0  0  0  0  0  0  0  0  0  0  0
  1  2  1  0  0  0  0
  1 37  1  0  0  0  0
  1 38  1  0  0  0  0
  1 39  1  0  0  0  0
  2  3  1  0  0  0  0
  2 40  1  0  0  0  0
  2 41  1  0  0  0  0
  3  4  1  0  0  0  0
  3  5  1  0  0  0  0
  3  7  1  0  0  0  0
  4 42  1  0  0  0  0
  4 43  1  0  0  0  0
  4 44  1  0  0  0  0
  5  6  1  0  0  0  0
  5 45  1  0  0  0  0
  5 46  1  0  0  0  0
  6 47  1  0  0  0  0
  6 48  1  0  0  0  0
  6 49  1  0  0  0  0
  7  8  1  0  0  0  0
  7 50  1  0  0  0  0
  7 51  1  0  0  0  0
  8  9  1  0  0  0  0
  8 52  1  0  0  0  0
  8 53  1  0  0  0  0
  9 10  1  0  0  0  0
 10 15  2  0  0  0  0
 10 11  1  0  0  0  0
 11 12  2  0  0  0  0
 11 54  1  0  0  0  0
 12 13  1  0  0  0  0
 12 55  1  0  0  0  0
 13 14  2  0  0  0  0
 13 16  1  0  0  0  0
 14 15  1  0  0  0  0
 14 56  1  0  0  0  0
 15 57  1  0  0  0  0
 16 17  1  0  0  0  0
 16 58  1  0  0  0  0
 17 27  2  0  0  0  0
 17 18  1  0  0  0  0
 18 19  2  0  0  0  0
 19 20  1  0  0  0  0
 19 59  1  0  0  0  0
 20 26  2  0  0  0  0
 20 21  1  0  0  0  0
 21 22  2  0  0  0  0
 21 60  1  0  0  0  0
 22 23  1  0  0  0  0
 22 29  1  0  0  0  0
 23 24  2  0  0  0  0
 23 25  1  0  0  0  0
 25 26  1  0  0  0  0
 25 28  1  0  0  0  0
 26 27  1  0  0  0  0
 28 61  1  0  0  0  0
 28 62  1  0  0  0  0
 28 63  1  0  0  0  0
 29 34  2  0  0  0  0
 29 30  1  0  0  0  0
 30 31  2  0  0  0  0
 30 36  1  0  0  0  0
 31 32  1  0  0  0  0
 31 64  1  0  0  0  0
 32 33  2  0  0  0  0
 32 65  1  0  0  0  0
 33 34  1  0  0  0  0
 33 66  1  0  0  0  0
 34 35  1  0  0  0  0
M  CHG  1   3   1
M  END
$$$$
ZINC03815493
  -OEChem-08230709403D

 60 64  0     0  0  0  0  0  0999 V2000
   -3.1412    0.0541   -6.3155 C   0  0  0  0  0  0  0  0  0  0  0  0
   -3.6737    0.6221   -7.5565 N   0  0  0  0  0  0  0  0  0  0  0  0
   -3.8041    1.9861   -7.6820 C   0  0  0  0  0  0  0  0  0  0  0  0
   -3.4382    2.8395   -6.6479 C   0  0  0  0  0  0  0  0  0  0  0  0
   -3.5893    4.2079   -6.8228 C   0  0  0  0  0  0  0  0  0  0  0  0
   -4.0793    4.7094   -7.9519 N   0  0  0  0  0  0  0  0  0  0  0  0
   -4.4348    3.9457   -8.9616 C   0  0  0  0  0  0  0  0  0  0  0  0
   -4.3157    2.5532   -8.8698 C   0  0  0  0  0  0  0  0  0  0  0  0
   -4.6986    1.7157   -9.9440 C   0  0  0  0  0  0  0  0  0  0  0  0
   -4.5658    0.3602   -9.8115 C   0  0  0  0  0  0  0  0  0  0  0  0
   -4.0322   -0.1955   -8.5658 C   0  0  0  0  0  0  0  0  0  0  0  0
   -3.9117   -1.4014   -8.4420 O   0  0  0  0  0  0  0  0  0  0  0  0
   -4.9597   -0.5394  -10.9207 C   0  0  0  0  0  0  0  0  0  0  0  0
   -6.2623   -1.0347  -10.9924 C   0  0  0  0  0  0  0  0  0  0  0  0
   -6.6243   -1.8691  -12.0318 C   0  0  0  0  0  0  0  0  0  0  0  0
   -5.6960   -2.2225  -12.9945 C   0  0  0  0  0  0  0  0  0  0  0  0
   -4.4017   -1.7392  -12.9264 C   0  0  0  0  0  0  0  0  0  0  0  0
   -4.0281   -0.8998  -11.8952 C   0  0  0  0  0  0  0  0  0  0  0  0
   -2.4031   -0.2948  -11.8113 Cl  0  0  0  0  0  0  0  0  0  0  0  0
   -7.4270   -0.5978   -9.7815 Cl  0  0  0  0  0  0  0  0  0  0  0  0
   -3.2271    5.0690   -5.7968 N   0  0  0  0  0  0  0  0  0  0  0  0
   -2.8766    4.5551   -4.5423 C   0  0  0  0  0  0  0  0  0  0  0  0
   -1.7840    5.0740   -3.8599 C   0  0  0  0  0  0  0  0  0  0  0  0
   -1.4387    4.5675   -2.6227 C   0  0  0  0  0  0  0  0  0  0  0  0
   -2.1839    3.5392   -2.0607 C   0  0  0  0  0  0  0  0  0  0  0  0
   -3.2730    3.0164   -2.7456 C   0  0  0  0  0  0  0  0  0  0  0  0
   -3.6218    3.5267   -3.9803 C   0  0  0  0  0  0  0  0  0  0  0  0
   -1.8338    3.0258   -0.8067 N   0  0  0  0  0  0  0  0  0  0  0  0
   -2.7503    1.9501   -0.4035 C   0  0  0  0  0  0  0  0  0  0  0  0
   -2.2877    1.3633    0.9322 C   0  0  0  0  0  0  0  0  0  0  0  0
   -1.3344    3.5029    1.5420 C   0  0  0  0  0  0  0  0  0  0  0  0
   -1.7970    4.0898    0.2063 C   0  0  0  0  0  0  0  0  0  0  0  0
   -1.8828    1.8878    3.2615 C   0  0  0  0  0  0  0  0  0  0  0  0
   -3.9612   -0.1426   -5.6248 H   0  0  0  0  0  0  0  0  0  0  0  0
   -2.6208   -0.8778   -6.5364 H   0  0  0  0  0  0  0  0  0  0  0  0
   -2.4455    0.7601   -5.8620 H   0  0  0  0  0  0  0  0  0  0  0  0
   -3.0425    2.4444   -5.7238 H   0  0  0  0  0  0  0  0  0  0  0  0
   -4.8244    4.3937   -9.8638 H   0  0  0  0  0  0  0  0  0  0  0  0
   -5.0908    2.1406  -10.8562 H   0  0  0  0  0  0  0  0  0  0  0  0
   -7.6334   -2.2496  -12.0909 H   0  0  0  0  0  0  0  0  0  0  0  0
   -5.9830   -2.8789  -13.8027 H   0  0  0  0  0  0  0  0  0  0  0  0
   -3.6818   -2.0186  -13.6814 H   0  0  0  0  0  0  0  0  0  0  0  0
   -3.2167    6.0270   -5.9486 H   0  0  0  0  0  0  0  0  0  0  0  0
   -1.2047    5.8739   -4.2967 H   0  0  0  0  0  0  0  0  0  0  0  0
   -0.5892    4.9713   -2.0919 H   0  0  0  0  0  0  0  0  0  0  0  0
   -3.8497    2.2135   -2.3107 H   0  0  0  0  0  0  0  0  0  0  0  0
   -4.4717    3.1234   -4.5108 H   0  0  0  0  0  0  0  0  0  0  0  0
   -2.7506    1.1687   -1.1634 H   0  0  0  0  0  0  0  0  0  0  0  0
   -3.7576    2.3523   -0.2946 H   0  0  0  0  0  0  0  0  0  0  0  0
   -2.9824    0.5848    1.2475 H   0  0  0  0  0  0  0  0  0  0  0  0
   -1.2914    0.9365    0.8163 H   0  0  0  0  0  0  0  0  0  0  0  0
   -0.3272    3.1008    1.4331 H   0  0  0  0  0  0  0  0  0  0  0  0
   -1.3338    4.2845    2.3018 H   0  0  0  0  0  0  0  0  0  0  0  0
   -1.1023    4.8683   -0.1090 H   0  0  0  0  0  0  0  0  0  0  0  0
   -2.7934    4.5165    0.3219 H   0  0  0  0  0  0  0  0  0  0  0  0
   -0.8969    1.4266    3.2026 H   0  0  0  0  0  0  0  0  0  0  0  0
   -1.8627    2.6960    3.9926 H   0  0  0  0  0  0  0  0  0  0  0  0
   -2.6158    1.1407    3.5658 H   0  0  0  0  0  0  0  0  0  0  0  0
   -2.2763    2.4379    1.9467 N   0  3  0  0  0  0  0  0  0  0  0  0
   -3.2195    2.8369    2.0209 H   0  0  0  0  0  0  0  0  0  0  0  0
  1  2  1  0  0  0  0
  1 34  1  0  0  0  0
  1 35  1  0  0  0  0
  1 36  1  0  0  0  0
  2 11  1  0  0  0  0
  2  3  1  0  0  0  0
  3  8  2  0  0  0  0
  3  4  1  0  0  0  0
  4  5  2  0  0  0  0
  4 37  1  0  0  0  0
  5  6  1  0  0  0  0
  5 21  1  0  0  0  0
  6  7  2  0  0  0  0
  7  8  1  0  0  0  0
  7 38  1  0  0  0  0
  8  9  1  0  0  0  0
  9 10  2  0  0  0  0
  9 39  1  0  0  0  0
 10 11  1  0  0  0  0
 10 13  1  0  0  0  0
 11 12  2  0  0  0  0
 13 18  2  0  0  0  0
 13 14  1  0  0  0  0
 14 15  2  0  0  0  0
 14 20  1  0  0  0  0
 15 16  1  0  0  0  0
 15 40  1  0  0  0  0
 16 17  2  0  0  0  0
 16 41  1  0  0  0  0
 17 18  1  0  0  0  0
 17 42  1  0  0  0  0
 18 19  1  0  0  0  0
 21 22  1  0  0  0  0
 21 43  1  0  0  0  0
 22 27  2  0  0  0  0
 22 23  1  0  0  0  0
 23 24  2  0  0  0  0
 23 44  1  0  0  0  0
 24 25  1  0  0  0  0
 24 45  1  0  0  0  0
 25 26  2  0  0  0  0
 25 28  1  0  0  0  0
 26 27  1  0  0  0  0
 26 46  1  0  0  0  0
 27 47  1  0  0  0  0
 28 32  1  0  0  0  0
 28 29  1  0  0  0  0
 29 30  1  0  0  0  0
 29 48  1  0  0  0  0
 29 49  1  0  0  0  0
 30 50  1  0  0  0  0
 30 51  1  0  0  0  0
 30 59  1  0  0  0  0
 31 32  1  0  0  0  0
 31 52  1  0  0  0  0
 31 53  1  0  0  0  0
 31 59  1  0  0  0  0
 32 54  1  0  0  0  0
 32 55  1  0  0  0  0
 33 56  1  0  0  0  0
 33 57  1  0  0  0  0
 33 58  1  0  0  0  0
 33 59  1  0  0  0  0
 59 60  1  0  0  0  0
M  CHG  1  59   1
M  END
$$$$
ZINC03815495
  -OEChem-08230709403D

 60 63  0     0  0  0  0  0  0999 V2000
   -3.5289   -2.5681    0.7066 C   0  0  0  0  0  0  0  0  0  0  0  0
   -2.4570   -2.8447   -0.3495 C   0  0  0  0  0  0  0  0  0  0  0  0
   -0.7459   -3.6183    1.1790 C   0  0  0  0  0  0  0  0  0  0  0  0
    0.3538   -3.0847    2.0992 C   0  0  0  0  0  0  0  0  0  0  0  0
   -0.1211   -2.4397   -0.8417 C   0  0  0  0  0  0  0  0  0  0  0  0
    0.9654   -1.6424   -0.3665 O   0  0  0  0  0  0  0  0  0  0  0  0
    0.7677   -0.2981   -0.3134 C   0  0  0  0  0  0  0  0  0  0  0  0
    1.7489    0.5265    0.2173 C   0  0  0  0  0  0  0  0  0  0  0  0
    1.5485    1.8917    0.2724 C   0  0  0  0  0  0  0  0  0  0  0  0
    0.3646    2.4391   -0.2041 C   0  0  0  0  0  0  0  0  0  0  0  0
   -0.6170    1.6130   -0.7356 C   0  0  0  0  0  0  0  0  0  0  0  0
   -0.4152    0.2480   -0.7896 C   0  0  0  0  0  0  0  0  0  0  0  0
    0.1605    3.8232   -0.1481 N   0  0  0  0  0  0  0  0  0  0  0  0
    1.2285    4.6857   -0.3022 C   0  0  0  0  0  0  0  0  0  0  0  0
    2.4290    4.1780   -0.5610 N   0  0  0  0  0  0  0  0  0  0  0  0
    3.4815    4.9585   -0.7169 C   0  0  0  0  0  0  0  0  0  0  0  0
    3.3109    6.3468   -0.6039 C   0  0  0  0  0  0  0  0  0  0  0  0
    4.4002    7.2338   -0.7611 C   0  0  0  0  0  0  0  0  0  0  0  0
    4.1823    8.5803   -0.6418 C   0  0  0  0  0  0  0  0  0  0  0  0
    2.8312    9.0674   -0.3554 C   0  0  0  0  0  0  0  0  0  0  0  0
    2.6284   10.2637   -0.2481 O   0  0  0  0  0  0  0  0  0  0  0  0
    1.8117    8.1992   -0.2105 N   0  0  0  0  0  0  0  0  0  0  0  0
    2.0207    6.8483   -0.3282 C   0  0  0  0  0  0  0  0  0  0  0  0
    1.0175    5.9881   -0.1919 N   0  0  0  0  0  0  0  0  0  0  0  0
    0.4659    8.7025    0.0754 C   0  0  0  0  0  0  0  0  0  0  0  0
    5.3033    9.5358   -0.8007 C   0  0  0  0  0  0  0  0  0  0  0  0
    6.0560    9.9236    0.3085 C   0  0  0  0  0  0  0  0  0  0  0  0
    7.1025   10.8115    0.1528 C   0  0  0  0  0  0  0  0  0  0  0  0
    7.3990   11.3234   -1.0975 C   0  0  0  0  0  0  0  0  0  0  0  0
    6.6535   10.9471   -2.2003 C   0  0  0  0  0  0  0  0  0  0  0  0
    5.6074   10.0564   -2.0592 C   0  0  0  0  0  0  0  0  0  0  0  0
    4.6726    9.5859   -3.4442 Cl  0  0  0  0  0  0  0  0  0  0  0  0
    5.6813    9.2874    1.8797 Cl  0  0  0  0  0  0  0  0  0  0  0  0
   -3.3479   -3.1938    1.5806 H   0  0  0  0  0  0  0  0  0  0  0  0
   -3.4903   -1.5182    0.9972 H   0  0  0  0  0  0  0  0  0  0  0  0
   -4.5121   -2.7951    0.2945 H   0  0  0  0  0  0  0  0  0  0  0  0
   -2.6214   -2.1986   -1.2119 H   0  0  0  0  0  0  0  0  0  0  0  0
   -2.5143   -3.8877   -0.6607 H   0  0  0  0  0  0  0  0  0  0  0  0
   -1.6138   -3.8997    1.7753 H   0  0  0  0  0  0  0  0  0  0  0  0
   -0.3770   -4.4909    0.6400 H   0  0  0  0  0  0  0  0  0  0  0  0
    0.6689   -3.8725    2.7835 H   0  0  0  0  0  0  0  0  0  0  0  0
    1.2050   -2.7626    1.4994 H   0  0  0  0  0  0  0  0  0  0  0  0
   -0.0290   -2.2390    2.6704 H   0  0  0  0  0  0  0  0  0  0  0  0
   -0.5705   -1.9601   -1.7113 H   0  0  0  0  0  0  0  0  0  0  0  0
    0.2474   -3.4267   -1.1210 H   0  0  0  0  0  0  0  0  0  0  0  0
    2.6696    0.1006    0.5878 H   0  0  0  0  0  0  0  0  0  0  0  0
    2.3106    2.5330    0.6900 H   0  0  0  0  0  0  0  0  0  0  0  0
   -1.5379    2.0380   -1.1067 H   0  0  0  0  0  0  0  0  0  0  0  0
   -1.1785   -0.3946   -1.2030 H   0  0  0  0  0  0  0  0  0  0  0  0
   -0.7309    4.1764   -0.0012 H   0  0  0  0  0  0  0  0  0  0  0  0
    4.4536    4.5377   -0.9274 H   0  0  0  0  0  0  0  0  0  0  0  0
    5.3895    6.8551   -0.9717 H   0  0  0  0  0  0  0  0  0  0  0  0
    0.3244    8.7692    1.1541 H   0  0  0  0  0  0  0  0  0  0  0  0
    0.3456    9.6907   -0.3686 H   0  0  0  0  0  0  0  0  0  0  0  0
   -0.2737    8.0221   -0.3467 H   0  0  0  0  0  0  0  0  0  0  0  0
    7.6885   11.1093    1.0098 H   0  0  0  0  0  0  0  0  0  0  0  0
    8.2160   12.0203   -1.2133 H   0  0  0  0  0  0  0  0  0  0  0  0
    6.8896   11.3510   -3.1737 H   0  0  0  0  0  0  0  0  0  0  0  0
   -1.1305   -2.5503    0.2323 N   0  3  0  0  0  0  0  0  0  0  0  0
   -1.1787   -1.6579    0.7379 H   0  0  0  0  0  0  0  0  0  0  0  0
  1  2  1  0  0  0  0
  1 34  1  0  0  0  0
  1 35  1  0  0  0  0
  1 36  1  0  0  0  0
  2 37  1  0  0  0  0
  2 38  1  0  0  0  0
  2 59  1  0  0  0  0
  3  4  1  0  0  0  0
  3 39  1  0  0  0  0
  3 40  1  0  0  0  0
  3 59  1  0  0  0  0
  4 41  1  0  0  0  0
  4 42  1  0  0  0  0
  4 43  1  0  0  0  0
  5  6  1  0  0  0  0
  5 44  1  0  0  0  0
  5 45  1  0  0  0  0
  5 59  1  0  0  0  0
  6  7  1  0  0  0  0
  7 12  2  0  0  0  0
  7  8  1  0  0  0  0
  8  9  2  0  0  0  0
  8 46  1  0  0  0  0
  9 10  1  0  0  0  0
  9 47  1  0  0  0  0
 10 11  2  0  0  0  0
 10 13  1  0  0  0  0
 11 12  1  0  0  0  0
 11 48  1  0  0  0  0
 12 49  1  0  0  0  0
 13 14  1  0  0  0  0
 13 50  1  0  0  0  0
 14 24  2  0  0  0  0
 14 15  1  0  0  0  0
 15 16  2  0  0  0  0
 16 17  1  0  0  0  0
 16 51  1  0  0  0  0
 17 23  2  0  0  0  0
 17 18  1  0  0  0  0
 18 19  2  0  0  0  0
 18 52  1  0  0  0  0
 19 20  1  0  0  0  0
 19 26  1  0  0  0  0
 20 21  2  0  0  0  0
 20 22  1  0  0  0  0
 22 23  1  0  0  0  0
 22 25  1  0  0  0  0
 23 24  1  0  0  0  0
 25 53  1  0  0  0  0
 25 54  1  0  0  0  0
 25 55  1  0  0  0  0
 26 31  2  0  0  0  0
 26 27  1  0  0  0  0
 27 28  2  0  0  0  0
 27 33  1  0  0  0  0
 28 29  1  0  0  0  0
 28 56  1  0  0  0  0
 29 30  2  0  0  0  0
 29 57  1  0  0  0  0
 30 31  1  0  0  0  0
 30 58  1  0  0  0  0
 31 32  1  0  0  0  0
 59 60  1  0  0  0  0
M  CHG  1  59   1
M  END
$$$$
ZINC03815496
  -OEChem-08230709403D

 63 66  0     0  0  0  0  0  0999 V2000
    3.3701   -6.4009   -1.6428 C   0  0  0  0  0  0  0  0  0  0  0  0
    2.0772   -5.6702   -2.0107 C   0  0  0  0  0  0  0  0  0  0  0  0
    2.2699   -4.2228   -1.8496 N   0  3  0  0  0  0  0  0  0  0  0  0
    1.0167   -3.5240   -2.1643 C   0  0  0  0  0  0  0  0  0  0  0  0
    0.5330   -3.9449   -3.5534 C   0  0  0  0  0  0  0  0  0  0  0  0
    2.6579   -3.9319   -0.4629 C   0  0  0  0  0  0  0  0  0  0  0  0
    2.8370   -2.4224   -0.2895 C   0  0  0  0  0  0  0  0  0  0  0  0
    1.5656   -1.7774   -0.3882 O   0  0  0  0  0  0  0  0  0  0  0  0
    1.5479   -0.4242   -0.2556 C   0  0  0  0  0  0  0  0  0  0  0  0
    0.3470    0.2650   -0.3408 C   0  0  0  0  0  0  0  0  0  0  0  0
    0.3283    1.6393   -0.2072 C   0  0  0  0  0  0  0  0  0  0  0  0
    1.5119    2.3313    0.0132 C   0  0  0  0  0  0  0  0  0  0  0  0
    2.7135    1.6406    0.0988 C   0  0  0  0  0  0  0  0  0  0  0  0
    2.7306    0.2663   -0.0355 C   0  0  0  0  0  0  0  0  0  0  0  0
    1.4938    3.7249    0.1484 N   0  0  0  0  0  0  0  0  0  0  0  0
    0.4203    4.3459    0.7568 C   0  0  0  0  0  0  0  0  0  0  0  0
   -0.5250    3.5935    1.3101 N   0  0  0  0  0  0  0  0  0  0  0  0
   -1.5707    4.1372    1.9036 C   0  0  0  0  0  0  0  0  0  0  0  0
   -1.6691    5.5366    1.9415 C   0  0  0  0  0  0  0  0  0  0  0  0
   -2.7651    6.1772    2.5632 C   0  0  0  0  0  0  0  0  0  0  0  0
   -2.8152    7.5454    2.5742 C   0  0  0  0  0  0  0  0  0  0  0  0
   -1.7364    8.3095    1.9441 C   0  0  0  0  0  0  0  0  0  0  0  0
   -1.7728    9.5270    1.9497 O   0  0  0  0  0  0  0  0  0  0  0  0
   -0.7039    7.6726    1.3589 N   0  0  0  0  0  0  0  0  0  0  0  0
   -0.6453    6.3019    1.3430 C   0  0  0  0  0  0  0  0  0  0  0  0
    0.3738    5.6690    0.7721 N   0  0  0  0  0  0  0  0  0  0  0  0
    0.3677    8.4514    0.7333 C   0  0  0  0  0  0  0  0  0  0  0  0
   -3.9509    8.2466    3.2174 C   0  0  0  0  0  0  0  0  0  0  0  0
   -5.0868    8.5694    2.4739 C   0  0  0  0  0  0  0  0  0  0  0  0
   -6.1437    9.2193    3.0806 C   0  0  0  0  0  0  0  0  0  0  0  0
   -6.0741    9.5587    4.4198 C   0  0  0  0  0  0  0  0  0  0  0  0
   -4.9488    9.2463    5.1612 C   0  0  0  0  0  0  0  0  0  0  0  0
   -3.8869    8.5922    4.5678 C   0  0  0  0  0  0  0  0  0  0  0  0
   -2.4753    8.2016    5.4998 Cl  0  0  0  0  0  0  0  0  0  0  0  0
   -5.1734    8.1503    0.7915 Cl  0  0  0  0  0  0  0  0  0  0  0  0
    3.3235   -3.7672   -2.7566 O   0  5  0  0  0  0  0  0  0  0  0  0
    4.1948   -5.9989   -2.2313 H   0  0  0  0  0  0  0  0  0  0  0  0
    3.5780   -6.2598   -0.5822 H   0  0  0  0  0  0  0  0  0  0  0  0
    3.2586   -7.4647   -1.8527 H   0  0  0  0  0  0  0  0  0  0  0  0
    1.2721   -6.0046   -1.3565 H   0  0  0  0  0  0  0  0  0  0  0  0
    1.8183   -5.8892   -3.0467 H   0  0  0  0  0  0  0  0  0  0  0  0
    0.2607   -3.7819   -1.4227 H   0  0  0  0  0  0  0  0  0  0  0  0
    1.1875   -2.4475   -2.1498 H   0  0  0  0  0  0  0  0  0  0  0  0
   -0.3969   -3.4264   -3.7869 H   0  0  0  0  0  0  0  0  0  0  0  0
    1.2890   -3.6869   -4.2950 H   0  0  0  0  0  0  0  0  0  0  0  0
    0.3622   -5.0214   -3.5679 H   0  0  0  0  0  0  0  0  0  0  0  0
    3.5961   -4.4377   -0.2344 H   0  0  0  0  0  0  0  0  0  0  0  0
    1.8802   -4.2857    0.2138 H   0  0  0  0  0  0  0  0  0  0  0  0
    3.4983   -2.0430   -1.0685 H   0  0  0  0  0  0  0  0  0  0  0  0
    3.2730   -2.2182    0.6884 H   0  0  0  0  0  0  0  0  0  0  0  0
   -0.5734   -0.2734   -0.5122 H   0  0  0  0  0  0  0  0  0  0  0  0
   -0.6061    2.1762   -0.2784 H   0  0  0  0  0  0  0  0  0  0  0  0
    3.6344    2.1780    0.2705 H   0  0  0  0  0  0  0  0  0  0  0  0
    3.6651   -0.2710    0.0311 H   0  0  0  0  0  0  0  0  0  0  0  0
    2.2350    4.2542   -0.1852 H   0  0  0  0  0  0  0  0  0  0  0  0
   -2.3343    3.5184    2.3511 H   0  0  0  0  0  0  0  0  0  0  0  0
   -3.5513    5.5961    3.0222 H   0  0  0  0  0  0  0  0  0  0  0  0
    0.1217    8.6330   -0.3129 H   0  0  0  0  0  0  0  0  0  0  0  0
    0.4749    9.4041    1.2520 H   0  0  0  0  0  0  0  0  0  0  0  0
    1.3039    7.8966    0.7954 H   0  0  0  0  0  0  0  0  0  0  0  0
   -7.0251    9.4661    2.5074 H   0  0  0  0  0  0  0  0  0  0  0  0
   -6.9018   10.0702    4.8885 H   0  0  0  0  0  0  0  0  0  0  0  0
   -4.9004    9.5146    6.2062 H   0  0  0  0  0  0  0  0  0  0  0  0
  1  2  1  0  0  0  0
  1 37  1  0  0  0  0
  1 38  1  0  0  0  0
  1 39  1  0  0  0  0
  2  3  1  0  0  0  0
  2 40  1  0  0  0  0
  2 41  1  0  0  0  0
  3  4  1  0  0  0  0
  3  6  1  0  0  0  0
  3 36  1  0  0  0  0
  4  5  1  0  0  0  0
  4 42  1  0  0  0  0
  4 43  1  0  0  0  0
  5 44  1  0  0  0  0
  5 45  1  0  0  0  0
  5 46  1  0  0  0  0
  6  7  1  0  0  0  0
  6 47  1  0  0  0  0
  6 48  1  0  0  0  0
  7  8  1  0  0  0  0
  7 49  1  0  0  0  0
  7 50  1  0  0  0  0
  8  9  1  0  0  0  0
  9 14  2  0  0  0  0
  9 10  1  0  0  0  0
 10 11  2  0  0  0  0
 10 51  1  0  0  0  0
 11 12  1  0  0  0  0
 11 52  1  0  0  0  0
 12 13  2  0  0  0  0
 12 15  1  0  0  0  0
 13 14  1  0  0  0  0
 13 53  1  0  0  0  0
 14 54  1  0  0  0  0
 15 16  1  0  0  0  0
 15 55  1  0  0  0  0
 16 26  2  0  0  0  0
 16 17  1  0  0  0  0
 17 18  2  0  0  0  0
 18 19  1  0  0  0  0
 18 56  1  0  0  0  0
 19 25  2  0  0  0  0
 19 20  1  0  0  0  0
 20 21  2  0  0  0  0
 20 57  1  0  0  0  0
 21 22  1  0  0  0  0
 21 28  1  0  0  0  0
 22 23  2  0  0  0  0
 22 24  1  0  0  0  0
 24 25  1  0  0  0  0
 24 27  1  0  0  0  0
 25 26  1  0  0  0  0
 27 58  1  0  0  0  0
 27 59  1  0  0  0  0
 27 60  1  0  0  0  0
 28 33  2  0  0  0  0
 28 29  1  0  0  0  0
 29 30  2  0  0  0  0
 29 35  1  0  0  0  0
 30 31  1  0  0  0  0
 30 61  1  0  0  0  0
 31 32  2  0  0  0  0
 31 62  1  0  0  0  0
 32 33  1  0  0  0  0
 32 63  1  0  0  0  0
 33 34  1  0  0  0  0
M  CHG  2   3   1  36  -1
M  END
$$$$
ZINC03815497
  -OEChem-08230709403D

 63 67  0     0  0  0  0  0  0999 V2000
   -4.6629    5.0294   10.9842 C   0  0  0  0  0  0  0  0  0  0  0  0
   -4.8082    3.5759   10.8730 N   0  0  0  0  0  0  0  0  0  0  0  0
   -4.2124    2.9117    9.8308 C   0  0  0  0  0  0  0  0  0  0  0  0
   -4.3425    1.5112    9.7090 C   0  0  0  0  0  0  0  0  0  0  0  0
   -5.0891    0.7807   10.6615 C   0  0  0  0  0  0  0  0  0  0  0  0
   -5.6797    1.4520   11.6984 C   0  0  0  0  0  0  0  0  0  0  0  0
   -5.5250    2.9051   11.7952 C   0  0  0  0  0  0  0  0  0  0  0  0
   -6.0468    3.5102   12.7148 O   0  0  0  0  0  0  0  0  0  0  0  0
   -6.4687    0.7151   12.7130 C   0  0  0  0  0  0  0  0  0  0  0  0
   -7.8386    0.5220   12.5306 C   0  0  0  0  0  0  0  0  0  0  0  0
   -8.5676   -0.1692   13.4784 C   0  0  0  0  0  0  0  0  0  0  0  0
   -7.9444   -0.6616   14.6109 C   0  0  0  0  0  0  0  0  0  0  0  0
   -6.5877   -0.4695   14.8001 C   0  0  0  0  0  0  0  0  0  0  0  0
   -5.8463    0.2162   13.8579 C   0  0  0  0  0  0  0  0  0  0  0  0
   -4.1439    0.4573   14.0977 Cl  0  0  0  0  0  0  0  0  0  0  0  0
   -8.6238    1.1444   11.1129 Cl  0  0  0  0  0  0  0  0  0  0  0  0
   -3.7173    0.8705    8.6288 C   0  0  0  0  0  0  0  0  0  0  0  0
   -3.0327    1.6029    7.7702 N   0  0  0  0  0  0  0  0  0  0  0  0
   -2.9316    2.9194    7.9165 C   0  0  0  0  0  0  0  0  0  0  0  0
   -3.4996    3.5676    8.9219 N   0  0  0  0  0  0  0  0  0  0  0  0
   -2.2022    3.6381    6.9887 N   0  0  0  0  0  0  0  0  0  0  0  0
   -1.6845    2.9979    5.8588 C   0  0  0  0  0  0  0  0  0  0  0  0
   -2.3855    1.9546    5.2675 C   0  0  0  0  0  0  0  0  0  0  0  0
   -1.8711    1.3241    4.1517 C   0  0  0  0  0  0  0  0  0  0  0  0
   -0.6595    1.7303    3.6230 C   0  0  0  0  0  0  0  0  0  0  0  0
    0.0434    2.7652    4.2124 C   0  0  0  0  0  0  0  0  0  0  0  0
   -0.4679    3.4035    5.3253 C   0  0  0  0  0  0  0  0  0  0  0  0
   -0.1010    1.0397    2.4056 C   0  0  0  0  0  0  0  0  0  0  0  0
    0.1264    1.2293    0.0020 C   0  0  0  0  0  0  0  0  0  0  0  0
   -0.4534    1.9029   -1.2440 C   0  0  0  0  0  0  0  0  0  0  0  0
   -1.0230    3.8513    0.0743 C   0  0  0  0  0  0  0  0  0  0  0  0
   -0.4432    3.1777    1.3204 C   0  0  0  0  0  0  0  0  0  0  0  0
   -0.7947    4.0408   -2.3292 C   0  0  0  0  0  0  0  0  0  0  0  0
   -5.4748    5.5180   10.4454 H   0  0  0  0  0  0  0  0  0  0  0  0
   -4.6980    5.3188   12.0345 H   0  0  0  0  0  0  0  0  0  0  0  0
   -3.7079    5.3330   10.5554 H   0  0  0  0  0  0  0  0  0  0  0  0
   -5.1920   -0.2907   10.5727 H   0  0  0  0  0  0  0  0  0  0  0  0
   -9.6273   -0.3227   13.3367 H   0  0  0  0  0  0  0  0  0  0  0  0
   -8.5197   -1.1982   15.3509 H   0  0  0  0  0  0  0  0  0  0  0  0
   -6.1072   -0.8561   15.6867 H   0  0  0  0  0  0  0  0  0  0  0  0
   -3.7941   -0.1993    8.5026 H   0  0  0  0  0  0  0  0  0  0  0  0
   -2.0493    4.5867    7.1214 H   0  0  0  0  0  0  0  0  0  0  0  0
   -3.3316    1.6367    5.6801 H   0  0  0  0  0  0  0  0  0  0  0  0
   -2.4157    0.5131    3.6912 H   0  0  0  0  0  0  0  0  0  0  0  0
    0.9915    3.0771    3.7997 H   0  0  0  0  0  0  0  0  0  0  0  0
    0.0795    4.2146    5.7824 H   0  0  0  0  0  0  0  0  0  0  0  0
   -0.4316    0.0011    2.3934 H   0  0  0  0  0  0  0  0  0  0  0  0
    0.9880    1.0740    2.4360 H   0  0  0  0  0  0  0  0  0  0  0  0
    0.0004    0.1494   -0.0764 H   0  0  0  0  0  0  0  0  0  0  0  0
    1.1871    1.4667    0.0835 H   0  0  0  0  0  0  0  0  0  0  0  0
    0.0878    1.5622   -2.1267 H   0  0  0  0  0  0  0  0  0  0  0  0
   -1.5075    1.6427   -1.3409 H   0  0  0  0  0  0  0  0  0  0  0  0
   -0.8970    4.9311    0.1528 H   0  0  0  0  0  0  0  0  0  0  0  0
   -2.0837    3.6139   -0.0075 H   0  0  0  0  0  0  0  0  0  0  0  0
    0.6109    3.4376    1.4170 H   0  0  0  0  0  0  0  0  0  0  0  0
   -0.9842    3.5187    2.2031 H   0  0  0  0  0  0  0  0  0  0  0  0
   -1.8455    3.8005   -2.4906 H   0  0  0  0  0  0  0  0  0  0  0  0
   -0.6827    5.1184   -2.2089 H   0  0  0  0  0  0  0  0  0  0  0  0
   -0.2100    3.7082   -3.1869 H   0  0  0  0  0  0  0  0  0  0  0  0
   -0.6060    1.7142    1.1906 N   0  3  0  0  0  0  0  0  0  0  0  0
   -1.6035    1.4979    1.0792 H   0  0  0  0  0  0  0  0  0  0  0  0
   -0.2903    3.3663   -1.1141 N   0  3  0  0  0  0  0  0  0  0  0  0
    0.7073    3.5823   -1.0023 H   0  0  0  0  0  0  0  0  0  0  0  0
  1  2  1  0  0  0  0
  1 34  1  0  0  0  0
  1 35  1  0  0  0  0
  1 36  1  0  0  0  0
  2  7  1  0  0  0  0
  2  3  1  0  0  0  0
  3 20  2  0  0  0  0
  3  4  1  0  0  0  0
  4  5  1  0  0  0  0
  4 17  2  0  0  0  0
  5  6  2  0  0  0  0
  5 37  1  0  0  0  0
  6  7  1  0  0  0  0
  6  9  1  0  0  0  0
  7  8  2  0  0  0  0
  9 14  2  0  0  0  0
  9 10  1  0  0  0  0
 10 11  2  0  0  0  0
 10 16  1  0  0  0  0
 11 12  1  0  0  0  0
 11 38  1  0  0  0  0
 12 13  2  0  0  0  0
 12 39  1  0  0  0  0
 13 14  1  0  0  0  0
 13 40  1  0  0  0  0
 14 15  1  0  0  0  0
 17 18  1  0  0  0  0
 17 41  1  0  0  0  0
 18 19  2  0  0  0  0
 19 20  1  0  0  0  0
 19 21  1  0  0  0  0
 21 22  1  0  0  0  0
 21 42  1  0  0  0  0
 22 27  2  0  0  0  0
 22 23  1  0  0  0  0
 23 24  2  0  0  0  0
 23 43  1  0  0  0  0
 24 25  1  0  0  0  0
 24 44  1  0  0  0  0
 25 26  2  0  0  0  0
 25 28  1  0  0  0  0
 26 27  1  0  0  0  0
 26 45  1  0  0  0  0
 27 46  1  0  0  0  0
 28 47  1  0  0  0  0
 28 48  1  0  0  0  0
 28 60  1  0  0  0  0
 29 30  1  0  0  0  0
 29 49  1  0  0  0  0
 29 50  1  0  0  0  0
 29 60  1  0  0  0  0
 30 51  1  0  0  0  0
 30 52  1  0  0  0  0
 30 62  1  0  0  0  0
 31 32  1  0  0  0  0
 31 53  1  0  0  0  0
 31 54  1  0  0  0  0
 31 62  1  0  0  0  0
 32 55  1  0  0  0  0
 32 56  1  0  0  0  0
 32 60  1  0  0  0  0
 33 57  1  0  0  0  0
 33 58  1  0  0  0  0
 33 59  1  0  0  0  0
 33 62  1  0  0  0  0
 60 61  1  0  0  0  0
 62 63  1  0  0  0  0
M  CHG  2  60   1  62   1
M  END
$$$$
ZINC03815499
  -OEChem-08230709403D

 51 54  0     0  0  0  0  0  0999 V2000
    2.0709    8.2772    0.4276 C   0  0  0  0  0  0  0  0  0  0  0  0
    3.3654    7.5914    0.4148 N   0  0  0  0  0  0  0  0  0  0  0  0
    3.4085    6.2243    0.3059 C   0  0  0  0  0  0  0  0  0  0  0  0
    4.6476    5.5480    0.2920 C   0  0  0  0  0  0  0  0  0  0  0  0
    5.8559    6.2749    0.3904 C   0  0  0  0  0  0  0  0  0  0  0  0
    5.8030    7.6389    0.4978 C   0  0  0  0  0  0  0  0  0  0  0  0
    4.5011    8.3093    0.5096 C   0  0  0  0  0  0  0  0  0  0  0  0
    4.4450    9.5224    0.6053 O   0  0  0  0  0  0  0  0  0  0  0  0
    7.0517    8.4294    0.6022 C   0  0  0  0  0  0  0  0  0  0  0  0
    7.6001    8.7111    1.8540 C   0  0  0  0  0  0  0  0  0  0  0  0
    8.7666    9.4453    1.9441 C   0  0  0  0  0  0  0  0  0  0  0  0
    9.3860    9.9087    0.7974 C   0  0  0  0  0  0  0  0  0  0  0  0
    8.8450    9.6370   -0.4464 C   0  0  0  0  0  0  0  0  0  0  0  0
    7.6814    8.9002   -0.5507 C   0  0  0  0  0  0  0  0  0  0  0  0
    7.0034    8.5613   -2.1124 Cl  0  0  0  0  0  0  0  0  0  0  0  0
    6.8210    8.1355    3.2946 Cl  0  0  0  0  0  0  0  0  0  0  0  0
    4.6477    4.1496    0.1787 C   0  0  0  0  0  0  0  0  0  0  0  0
    3.4895    3.5229    0.0897 N   0  0  0  0  0  0  0  0  0  0  0  0
    2.3421    4.1926    0.1060 C   0  0  0  0  0  0  0  0  0  0  0  0
    2.2918    5.5122    0.2062 N   0  0  0  0  0  0  0  0  0  0  0  0
    1.1585    3.4870    0.0093 N   0  0  0  0  0  0  0  0  0  0  0  0
    1.1757    2.0869    0.0133 C   0  0  0  0  0  0  0  0  0  0  0  0
    2.1234    1.4060    0.7660 C   0  0  0  0  0  0  0  0  0  0  0  0
    2.1394    0.0252    0.7698 C   0  0  0  0  0  0  0  0  0  0  0  0
    1.2089   -0.6817    0.0223 C   0  0  0  0  0  0  0  0  0  0  0  0
    0.2619   -0.0022   -0.7299 C   0  0  0  0  0  0  0  0  0  0  0  0
    0.2448    1.3786   -0.7351 C   0  0  0  0  0  0  0  0  0  0  0  0
    1.2247   -2.0414    0.0273 O   0  0  0  0  0  0  0  0  0  0  0  0
    0.2377   -2.7046   -0.7652 C   0  0  0  0  0  0  0  0  0  0  0  0
    0.4120   -4.2190   -0.6345 C   0  0  0  0  0  0  0  0  0  0  0  0
    1.7162    8.3647    1.4546 H   0  0  0  0  0  0  0  0  0  0  0  0
    2.1823    9.2718   -0.0042 H   0  0  0  0  0  0  0  0  0  0  0  0
    1.3510    7.7055   -0.1580 H   0  0  0  0  0  0  0  0  0  0  0  0
    6.8065    5.7624    0.3799 H   0  0  0  0  0  0  0  0  0  0  0  0
    9.1939    9.6612    2.9121 H   0  0  0  0  0  0  0  0  0  0  0  0
   10.2958   10.4856    0.8735 H   0  0  0  0  0  0  0  0  0  0  0  0
    9.3333   10.0020   -1.3378 H   0  0  0  0  0  0  0  0  0  0  0  0
    5.5758    3.5975    0.1643 H   0  0  0  0  0  0  0  0  0  0  0  0
    0.3154    3.9615   -0.0615 H   0  0  0  0  0  0  0  0  0  0  0  0
    2.8449    1.9561    1.3519 H   0  0  0  0  0  0  0  0  0  0  0  0
    2.8763   -0.5046    1.3552 H   0  0  0  0  0  0  0  0  0  0  0  0
   -0.4620   -0.5533   -1.3119 H   0  0  0  0  0  0  0  0  0  0  0  0
   -0.4923    1.9074   -1.3211 H   0  0  0  0  0  0  0  0  0  0  0  0
   -0.7564   -2.4221   -0.4187 H   0  0  0  0  0  0  0  0  0  0  0  0
    0.3547   -2.4142   -1.8092 H   0  0  0  0  0  0  0  0  0  0  0  0
   -0.2820   -4.7240   -1.3065 H   0  0  0  0  0  0  0  0  0  0  0  0
    1.4344   -4.4911   -0.8966 H   0  0  0  0  0  0  0  0  0  0  0  0
   -0.7831   -4.3276    1.0384 H   0  0  0  0  0  0  0  0  0  0  0  0
    0.2451   -5.6228    0.8621 H   0  0  0  0  0  0  0  0  0  0  0  0
    0.1548   -4.6131    0.7619 N   0  3  0  0  0  0  0  0  0  0  0  0
    0.8391   -4.1532    1.3739 H   0  0  0  0  0  0  0  0  0  0  0  0
  1  2  1  0  0  0  0
  1 31  1  0  0  0  0
  1 32  1  0  0  0  0
  1 33  1  0  0  0  0
  2  7  1  0  0  0  0
  2  3  1  0  0  0  0
  3 20  2  0  0  0  0
  3  4  1  0  0  0  0
  4  5  1  0  0  0  0
  4 17  2  0  0  0  0
  5  6  2  0  0  0  0
  5 34  1  0  0  0  0
  6  7  1  0  0  0  0
  6  9  1  0  0  0  0
  7  8  2  0  0  0  0
  9 14  2  0  0  0  0
  9 10  1  0  0  0  0
 10 11  2  0  0  0  0
 10 16  1  0  0  0  0
 11 12  1  0  0  0  0
 11 35  1  0  0  0  0
 12 13  2  0  0  0  0
 12 36  1  0  0  0  0
 13 14  1  0  0  0  0
 13 37  1  0  0  0  0
 14 15  1  0  0  0  0
 17 18  1  0  0  0  0
 17 38  1  0  0  0  0
 18 19  2  0  0  0  0
 19 20  1  0  0  0  0
 19 21  1  0  0  0  0
 21 22  1  0  0  0  0
 21 39  1  0  0  0  0
 22 27  2  0  0  0  0
 22 23  1  0  0  0  0
 23 24  2  0  0  0  0
 23 40  1  0  0  0  0
 24 25  1  0  0  0  0
 24 41  1  0  0  0  0
 25 26  2  0  0  0  0
 25 28  1  0  0  0  0
 26 27  1  0  0  0  0
 26 42  1  0  0  0  0
 27 43  1  0  0  0  0
 28 29  1  0  0  0  0
 29 30  1  0  0  0  0
 29 44  1  0  0  0  0
 29 45  1  0  0  0  0
 30 46  1  0  0  0  0
 30 47  1  0  0  0  0
 30 50  1  0  0  0  0
 48 50  1  0  0  0  0
 49 50  1  0  0  0  0
 50 51  1  0  0  0  0
M  CHG  1  50   1
M  END
$$$$
ZINC03815501
  -OEChem-08230709403D

 57 60  0     0  0  0  0  0  0999 V2000
    0.0001   -6.4621    2.3646 C   0  0  0  0  0  0  0  0  0  0  0  0
    0.2945   -6.0773    0.9133 C   0  0  0  0  0  0  0  0  0  0  0  0
    0.4120   -4.2190   -0.6345 C   0  0  0  0  0  0  0  0  0  0  0  0
    0.2377   -2.7046   -0.7652 C   0  0  0  0  0  0  0  0  0  0  0  0
    1.2247   -2.0414    0.0273 O   0  0  0  0  0  0  0  0  0  0  0  0
    1.2089   -0.6817    0.0223 C   0  0  0  0  0  0  0  0  0  0  0  0
    2.1394    0.0252    0.7698 C   0  0  0  0  0  0  0  0  0  0  0  0
    2.1234    1.4060    0.7661 C   0  0  0  0  0  0  0  0  0  0  0  0
    1.1757    2.0869    0.0133 C   0  0  0  0  0  0  0  0  0  0  0  0
    0.2449    1.3786   -0.7351 C   0  0  0  0  0  0  0  0  0  0  0  0
    0.2619   -0.0022   -0.7299 C   0  0  0  0  0  0  0  0  0  0  0  0
    1.1585    3.4870    0.0093 N   0  0  0  0  0  0  0  0  0  0  0  0
    2.3421    4.1926    0.1060 C   0  0  0  0  0  0  0  0  0  0  0  0
    3.4897    3.5228    0.0897 N   0  0  0  0  0  0  0  0  0  0  0  0
    4.6477    4.1493    0.1791 C   0  0  0  0  0  0  0  0  0  0  0  0
    4.6476    5.5480    0.2929 C   0  0  0  0  0  0  0  0  0  0  0  0
    5.8558    6.2749    0.3918 C   0  0  0  0  0  0  0  0  0  0  0  0
    5.8029    7.6388    0.5005 C   0  0  0  0  0  0  0  0  0  0  0  0
    4.5009    8.3092    0.5118 C   0  0  0  0  0  0  0  0  0  0  0  0
    4.4447    9.5222    0.6078 O   0  0  0  0  0  0  0  0  0  0  0  0
    3.3654    7.5912    0.4161 N   0  0  0  0  0  0  0  0  0  0  0  0
    3.4087    6.2242    0.3068 C   0  0  0  0  0  0  0  0  0  0  0  0
    2.2918    5.5119    0.2063 N   0  0  0  0  0  0  0  0  0  0  0  0
    2.0708    8.2769    0.4284 C   0  0  0  0  0  0  0  0  0  0  0  0
    7.0516    8.4292    0.6063 C   0  0  0  0  0  0  0  0  0  0  0  0
    7.5990    8.7101    1.8588 C   0  0  0  0  0  0  0  0  0  0  0  0
    8.7657    9.4437    1.9502 C   0  0  0  0  0  0  0  0  0  0  0  0
    9.3860    9.9080    0.8043 C   0  0  0  0  0  0  0  0  0  0  0  0
    8.8456    9.6374   -0.4400 C   0  0  0  0  0  0  0  0  0  0  0  0
    7.6821    8.9008   -0.5457 C   0  0  0  0  0  0  0  0  0  0  0  0
    7.0052    8.5629   -2.1082 Cl  0  0  0  0  0  0  0  0  0  0  0  0
    6.8185    8.1341    3.2984 Cl  0  0  0  0  0  0  0  0  0  0  0  0
    0.1173   -7.5390    2.4858 H   0  0  0  0  0  0  0  0  0  0  0  0
    0.6949   -5.9443    3.0258 H   0  0  0  0  0  0  0  0  0  0  0  0
   -1.0215   -6.1772    2.6159 H   0  0  0  0  0  0  0  0  0  0  0  0
   -0.4002   -6.5951    0.2520 H   0  0  0  0  0  0  0  0  0  0  0  0
    1.3161   -6.3622    0.6619 H   0  0  0  0  0  0  0  0  0  0  0  0
   -0.2819   -4.7240   -1.3065 H   0  0  0  0  0  0  0  0  0  0  0  0
    1.4345   -4.4911   -0.8966 H   0  0  0  0  0  0  0  0  0  0  0  0
   -0.7564   -2.4221   -0.4187 H   0  0  0  0  0  0  0  0  0  0  0  0
    0.3548   -2.4142   -1.8092 H   0  0  0  0  0  0  0  0  0  0  0  0
    2.8763   -0.5046    1.3552 H   0  0  0  0  0  0  0  0  0  0  0  0
    2.8448    1.9561    1.3519 H   0  0  0  0  0  0  0  0  0  0  0  0
   -0.4922    1.9074   -1.3211 H   0  0  0  0  0  0  0  0  0  0  0  0
   -0.4619   -0.5533   -1.3119 H   0  0  0  0  0  0  0  0  0  0  0  0
    0.3154    3.9615   -0.0615 H   0  0  0  0  0  0  0  0  0  0  0  0
    5.5758    3.5973    0.1647 H   0  0  0  0  0  0  0  0  0  0  0  0
    6.8063    5.7623    0.3820 H   0  0  0  0  0  0  0  0  0  0  0  0
    1.7155    8.3640    1.4552 H   0  0  0  0  0  0  0  0  0  0  0  0
    2.1824    9.2716   -0.0031 H   0  0  0  0  0  0  0  0  0  0  0  0
    1.3513    7.7052   -0.1578 H   0  0  0  0  0  0  0  0  0  0  0  0
    9.1927    9.6584    2.9187 H   0  0  0  0  0  0  0  0  0  0  0  0
   10.2960   10.4844    0.8814 H   0  0  0  0  0  0  0  0  0  0  0  0
    9.3344   10.0034   -1.3309 H   0  0  0  0  0  0  0  0  0  0  0  0
    0.1338   -4.6193    0.7578 N   0  3  0  0  0  0  0  0  0  0  0  0
    0.7879   -4.1376    1.3858 H   0  0  0  0  0  0  0  0  0  0  0  0
   -0.8290   -4.3569    0.9997 H   0  0  0  0  0  0  0  0  0  0  0  0
  1  2  1  0  0  0  0
  1 33  1  0  0  0  0
  1 34  1  0  0  0  0
  1 35  1  0  0  0  0
  2 36  1  0  0  0  0
  2 37  1  0  0  0  0
  2 55  1  0  0  0  0
  3  4  1  0  0  0  0
  3 38  1  0  0  0  0
  3 39  1  0  0  0  0
  3 55  1  0  0  0  0
  4  5  1  0  0  0  0
  4 40  1  0  0  0  0
  4 41  1  0  0  0  0
  5  6  1  0  0  0  0
  6 11  2  0  0  0  0
  6  7  1  0  0  0  0
  7  8  2  0  0  0  0
  7 42  1  0  0  0  0
  8  9  1  0  0  0  0
  8 43  1  0  0  0  0
  9 10  2  0  0  0  0
  9 12  1  0  0  0  0
 10 11  1  0  0  0  0
 10 44  1  0  0  0  0
 11 45  1  0  0  0  0
 12 13  1  0  0  0  0
 12 46  1  0  0  0  0
 13 23  2  0  0  0  0
 13 14  1  0  0  0  0
 14 15  2  0  0  0  0
 15 16  1  0  0  0  0
 15 47  1  0  0  0  0
 16 22  2  0  0  0  0
 16 17  1  0  0  0  0
 17 18  2  0  0  0  0
 17 48  1  0  0  0  0
 18 19  1  0  0  0  0
 18 25  1  0  0  0  0
 19 20  2  0  0  0  0
 19 21  1  0  0  0  0
 21 22  1  0  0  0  0
 21 24  1  0  0  0  0
 22 23  1  0  0  0  0
 24 49  1  0  0  0  0
 24 50  1  0  0  0  0
 24 51  1  0  0  0  0
 25 30  2  0  0  0  0
 25 26  1  0  0  0  0
 26 27  2  0  0  0  0
 26 32  1  0  0  0  0
 27 28  1  0  0  0  0
 27 52  1  0  0  0  0
 28 29  2  0  0  0  0
 28 53  1  0  0  0  0
 29 30  1  0  0  0  0
 29 54  1  0  0  0  0
 30 31  1  0  0  0  0
 55 56  1  0  0  0  0
 55 57  1  0  0  0  0
M  CHG  1  55   1
M  END
$$$$
ZINC03815503
  -OEChem-08230709403D

 58 61  0     0  0  0  0  0  0999 V2000
    1.4247   14.1846   -0.8768 C   0  0  0  0  0  0  0  0  0  0  0  0
    2.4374   12.3642    0.3583 C   0  0  0  0  0  0  0  0  0  0  0  0
    2.8449   10.8914    0.2743 C   0  0  0  0  0  0  0  0  0  0  0  0
    0.9774   10.4590   -1.2036 C   0  0  0  0  0  0  0  0  0  0  0  0
    0.5699   11.9318   -1.1196 C   0  0  0  0  0  0  0  0  0  0  0  0
    1.9901    8.6386    0.0315 C   0  0  0  0  0  0  0  0  0  0  0  0
    0.7049    7.8085    0.0393 C   0  0  0  0  0  0  0  0  0  0  0  0
    1.0590    6.3201    0.0273 C   0  0  0  0  0  0  0  0  0  0  0  0
   -0.1716    5.5252    0.0348 N   0  0  0  0  0  0  0  0  0  0  0  0
   -0.1026    4.1398    0.0262 C   0  0  0  0  0  0  0  0  0  0  0  0
    1.1396    3.5205    0.0106 C   0  0  0  0  0  0  0  0  0  0  0  0
    1.1973    2.1322    0.0021 C   0  0  0  0  0  0  0  0  0  0  0  0
   -0.0171    1.4109    0.0098 C   0  0  0  0  0  0  0  0  0  0  0  0
    0.0021   -0.0041    0.0020 C   0  0  0  0  0  0  0  0  0  0  0  0
    1.2063   -0.6534   -0.0130 C   0  0  0  0  0  0  0  0  0  0  0  0
    2.4472    0.1248   -0.0206 C   0  0  0  0  0  0  0  0  0  0  0  0
    3.5223   -0.4478   -0.0344 O   0  0  0  0  0  0  0  0  0  0  0  0
    2.4041    1.4716   -0.0130 N   0  0  0  0  0  0  0  0  0  0  0  0
    3.2561    1.9951   -0.0184 H   0  0  0  0  0  0  0  0  0  0  0  0
    1.2549   -2.1342   -0.0219 C   0  0  0  0  0  0  0  0  0  0  0  0
    1.2949   -2.8412    1.1805 C   0  0  0  0  0  0  0  0  0  0  0  0
    1.3342   -4.2217    1.1653 C   0  0  0  0  0  0  0  0  0  0  0  0
    1.3456   -4.9031   -0.0385 C   0  0  0  0  0  0  0  0  0  0  0  0
    1.3118   -4.2080   -1.2340 C   0  0  0  0  0  0  0  0  0  0  0  0
    1.2665   -2.8276   -1.2327 C   0  0  0  0  0  0  0  0  0  0  0  0
    1.2248   -1.9572   -2.7342 Cl  0  0  0  0  0  0  0  0  0  0  0  0
    1.2886   -1.9877    2.6922 Cl  0  0  0  0  0  0  0  0  0  0  0  0
   -1.2262    2.1162    0.0310 C   0  0  0  0  0  0  0  0  0  0  0  0
    2.3355   14.7740   -0.7713 H   0  0  0  0  0  0  0  0  0  0  0  0
    0.9280   14.4475   -1.8108 H   0  0  0  0  0  0  0  0  0  0  0  0
    0.7582   14.3928   -0.0397 H   0  0  0  0  0  0  0  0  0  0  0  0
    1.7575   12.5061    1.1984 H   0  0  0  0  0  0  0  0  0  0  0  0
    3.3255   12.9797    0.5013 H   0  0  0  0  0  0  0  0  0  0  0  0
    3.3182   10.5911    1.2091 H   0  0  0  0  0  0  0  0  0  0  0  0
    3.5460   10.7545   -0.5490 H   0  0  0  0  0  0  0  0  0  0  0  0
    1.6573   10.3171   -2.0437 H   0  0  0  0  0  0  0  0  0  0  0  0
    0.0892    9.8434   -1.3462 H   0  0  0  0  0  0  0  0  0  0  0  0
   -0.1312   12.0687   -0.2962 H   0  0  0  0  0  0  0  0  0  0  0  0
    0.0966   12.2321   -2.0544 H   0  0  0  0  0  0  0  0  0  0  0  0
    2.5827    8.3990    0.9144 H   0  0  0  0  0  0  0  0  0  0  0  0
    2.5654    8.4091   -0.8654 H   0  0  0  0  0  0  0  0  0  0  0  0
    0.1123    8.0481   -0.8436 H   0  0  0  0  0  0  0  0  0  0  0  0
    0.1296    8.0379    0.9363 H   0  0  0  0  0  0  0  0  0  0  0  0
    1.6516    6.0805    0.9102 H   0  0  0  0  0  0  0  0  0  0  0  0
    1.6343    6.0906   -0.8696 H   0  0  0  0  0  0  0  0  0  0  0  0
   -1.0347    5.9678    0.0458 H   0  0  0  0  0  0  0  0  0  0  0  0
    2.0459    4.1078    0.0047 H   0  0  0  0  0  0  0  0  0  0  0  0
   -0.9215   -0.5639    0.0075 H   0  0  0  0  0  0  0  0  0  0  0  0
    1.3608   -4.7703    2.0952 H   0  0  0  0  0  0  0  0  0  0  0  0
    1.3813   -5.9825   -0.0450 H   0  0  0  0  0  0  0  0  0  0  0  0
    1.3205   -4.7460   -2.1705 H   0  0  0  0  0  0  0  0  0  0  0  0
   -2.1626    1.5781    0.0412 H   0  0  0  0  0  0  0  0  0  0  0  0
    1.7826   12.7504   -0.9091 N   0  3  0  0  0  0  0  0  0  0  0  0
    2.4347   12.5867   -1.6851 H   0  0  0  0  0  0  0  0  0  0  0  0
    1.6325   10.0728    0.0640 N   0  3  0  0  0  0  0  0  0  0  0  0
    0.9805   10.2365    0.8401 H   0  0  0  0  0  0  0  0  0  0  0  0
   -1.2993    3.4714    0.0342 N   0  3  0  0  0  0  0  0  0  0  0  0
   -2.1984    3.9671    0.0423 H   0  0  0  0  0  0  0  0  0  0  0  0
  1 29  1  0  0  0  0
  1 30  1  0  0  0  0
  1 31  1  0  0  0  0
  1 53  1  0  0  0  0
  2  3  1  0  0  0  0
  2 32  1  0  0  0  0
  2 33  1  0  0  0  0
  2 53  1  0  0  0  0
  3 34  1  0  0  0  0
  3 35  1  0  0  0  0
  3 55  1  0  0  0  0
  4  5  1  0  0  0  0
  4 36  1  0  0  0  0
  4 37  1  0  0  0  0
  4 55  1  0  0  0  0
  5 38  1  0  0  0  0
  5 39  1  0  0  0  0
  5 53  1  0  0  0  0
  6  7  1  0  0  0  0
  6 40  1  0  0  0  0
  6 41  1  0  0  0  0
  6 55  1  0  0  0  0
  7  8  1  0  0  0  0
  7 42  1  0  0  0  0
  7 43  1  0  0  0  0
  8  9  1  0  0  0  0
  8 44  1  0  0  0  0
  8 45  1  0  0  0  0
  9 10  1  0  0  0  0
  9 46  1  0  0  0  0
 10 11  2  0  0  0  0
 10 57  1  0  0  0  0
 11 12  1  0  0  0  0
 11 47  1  0  0  0  0
 12 18  1  0  0  0  0
 12 13  2  0  0  0  0
 13 14  1  0  0  0  0
 13 28  1  0  0  0  0
 14 15  2  0  0  0  0
 14 48  1  0  0  0  0
 15 16  1  0  0  0  0
 15 20  1  0  0  0  0
 16 17  2  0  0  0  0
 16 18  1  0  0  0  0
 18 19  1  0  0  0  0
 20 25  2  0  0  0  0
 20 21  1  0  0  0  0
 21 22  2  0  0  0  0
 21 27  1  0  0  0  0
 22 23  1  0  0  0  0
 22 49  1  0  0  0  0
 23 24  2  0  0  0  0
 23 50  1  0  0  0  0
 24 25  1  0  0  0  0
 24 51  1  0  0  0  0
 25 26  1  0  0  0  0
 28 52  1  0  0  0  0
 28 57  2  0  0  0  0
 53 54  1  0  0  0  0
 55 56  1  0  0  0  0
 57 58  1  0  0  0  0
M  CHG  3  53   1  55   1  57   1
M  END
$$$$
ZINC03815505
  -OEChem-08230709403D

 63 65  0     0  0  0  0  0  0999 V2000
  -11.3762   -4.6258   -0.8142 C   0  0  0  0  0  0  0  0  0  0  0  0
   -9.8919   -4.3554   -1.0687 C   0  0  0  0  0  0  0  0  0  0  0  0
   -9.1704   -5.9302    0.6231 C   0  0  0  0  0  0  0  0  0  0  0  0
   -8.8283   -6.0031    2.1125 C   0  0  0  0  0  0  0  0  0  0  0  0
   -7.7593   -4.0519    0.0370 C   0  0  0  0  0  0  0  0  0  0  0  0
   -7.7427   -2.5223    0.0651 C   0  0  0  0  0  0  0  0  0  0  0  0
   -6.2951   -2.0275    0.0432 C   0  0  0  0  0  0  0  0  0  0  0  0
   -6.2785   -0.4978    0.0713 C   0  0  0  0  0  0  0  0  0  0  0  0
   -4.8309   -0.0031    0.0494 C   0  0  0  0  0  0  0  0  0  0  0  0
   -4.8150    1.4616    0.0763 N   0  0  0  0  0  0  0  0  0  0  0  0
   -3.6064    2.1425    0.0630 C   0  0  0  0  0  0  0  0  0  0  0  0
   -2.4202    1.4227    0.0246 C   0  0  0  0  0  0  0  0  0  0  0  0
   -1.2155    2.1148    0.0068 C   0  0  0  0  0  0  0  0  0  0  0  0
   -1.2529    3.5264    0.0386 C   0  0  0  0  0  0  0  0  0  0  0  0
   -0.0460    4.2651    0.0264 C   0  0  0  0  0  0  0  0  0  0  0  0
    1.1454    3.5933   -0.0116 C   0  0  0  0  0  0  0  0  0  0  0  0
    1.1489    2.1289   -0.0389 C   0  0  0  0  0  0  0  0  0  0  0  0
    2.2064    1.5252   -0.0728 O   0  0  0  0  0  0  0  0  0  0  0  0
   -0.0131    1.4467   -0.0261 N   0  0  0  0  0  0  0  0  0  0  0  0
    0.0038   -0.0179   -0.0537 C   0  0  0  0  0  0  0  0  0  0  0  0
    2.4235    4.3423   -0.0257 C   0  0  0  0  0  0  0  0  0  0  0  0
    3.0046    4.7140   -1.2387 C   0  0  0  0  0  0  0  0  0  0  0  0
    4.1936    5.4168   -1.2447 C   0  0  0  0  0  0  0  0  0  0  0  0
    4.8137    5.7430   -0.0520 C   0  0  0  0  0  0  0  0  0  0  0  0
    4.2458    5.3726    1.1538 C   0  0  0  0  0  0  0  0  0  0  0  0
    3.0545    4.6742    1.1739 C   0  0  0  0  0  0  0  0  0  0  0  0
    2.3438    4.2098    2.6881 Cl  0  0  0  0  0  0  0  0  0  0  0  0
    2.2317    4.2992   -2.7368 Cl  0  0  0  0  0  0  0  0  0  0  0  0
   -2.4943    4.1724    0.0773 C   0  0  0  0  0  0  0  0  0  0  0  0
  -11.5029   -5.6465   -0.4533 H   0  0  0  0  0  0  0  0  0  0  0  0
  -11.7497   -3.9268   -0.0659 H   0  0  0  0  0  0  0  0  0  0  0  0
  -11.9333   -4.4967   -1.7421 H   0  0  0  0  0  0  0  0  0  0  0  0
   -9.7652   -3.3348   -1.4296 H   0  0  0  0  0  0  0  0  0  0  0  0
   -9.5184   -5.0544   -1.8170 H   0  0  0  0  0  0  0  0  0  0  0  0
  -10.1661   -6.3422    0.4584 H   0  0  0  0  0  0  0  0  0  0  0  0
   -8.4404   -6.5058    0.0540 H   0  0  0  0  0  0  0  0  0  0  0  0
   -7.7996   -5.6768    2.2654 H   0  0  0  0  0  0  0  0  0  0  0  0
   -9.5022   -5.3546    2.6723 H   0  0  0  0  0  0  0  0  0  0  0  0
   -8.9393   -7.0299    2.4610 H   0  0  0  0  0  0  0  0  0  0  0  0
   -7.3513   -4.4024   -0.9110 H   0  0  0  0  0  0  0  0  0  0  0  0
   -7.1540   -4.4370    0.8576 H   0  0  0  0  0  0  0  0  0  0  0  0
   -8.2334   -2.1702    0.9725 H   0  0  0  0  0  0  0  0  0  0  0  0
   -8.2716   -2.1371   -0.8067 H   0  0  0  0  0  0  0  0  0  0  0  0
   -5.8045   -2.3796   -0.8642 H   0  0  0  0  0  0  0  0  0  0  0  0
   -5.7663   -2.4127    0.9151 H   0  0  0  0  0  0  0  0  0  0  0  0
   -6.7691   -0.1458    0.9787 H   0  0  0  0  0  0  0  0  0  0  0  0
   -6.8073   -0.1127   -0.8005 H   0  0  0  0  0  0  0  0  0  0  0  0
   -4.3402   -0.3551   -0.8580 H   0  0  0  0  0  0  0  0  0  0  0  0
   -4.3020   -0.3882    0.9212 H   0  0  0  0  0  0  0  0  0  0  0  0
   -5.6495    1.9553    0.1034 H   0  0  0  0  0  0  0  0  0  0  0  0
   -2.4335    0.3429    0.0048 H   0  0  0  0  0  0  0  0  0  0  0  0
   -0.0650    5.3448    0.0465 H   0  0  0  0  0  0  0  0  0  0  0  0
    1.0354   -0.3689   -0.0828 H   0  0  0  0  0  0  0  0  0  0  0  0
   -0.4862   -0.4038    0.8402 H   0  0  0  0  0  0  0  0  0  0  0  0
   -0.5251   -0.3708   -0.9390 H   0  0  0  0  0  0  0  0  0  0  0  0
    4.6423    5.7086   -2.1827 H   0  0  0  0  0  0  0  0  0  0  0  0
    5.7454    6.2891   -0.0622 H   0  0  0  0  0  0  0  0  0  0  0  0
    4.7350    5.6304    2.0815 H   0  0  0  0  0  0  0  0  0  0  0  0
   -2.5387    5.2513    0.0983 H   0  0  0  0  0  0  0  0  0  0  0  0
   -9.1538   -4.5135    0.2021 N   0  3  0  0  0  0  0  0  0  0  0  0
   -9.6097   -3.9452    0.9255 H   0  0  0  0  0  0  0  0  0  0  0  0
   -3.6794    3.5110    0.0900 N   0  3  0  0  0  0  0  0  0  0  0  0
   -4.5781    4.0067    0.1181 H   0  0  0  0  0  0  0  0  0  0  0  0
  1  2  1  0  0  0  0
  1 30  1  0  0  0  0
  1 31  1  0  0  0  0
  1 32  1  0  0  0  0
  2 33  1  0  0  0  0
  2 34  1  0  0  0  0
  2 60  1  0  0  0  0
  3  4  1  0  0  0  0
  3 35  1  0  0  0  0
  3 36  1  0  0  0  0
  3 60  1  0  0  0  0
  4 37  1  0  0  0  0
  4 38  1  0  0  0  0
  4 39  1  0  0  0  0
  5  6  1  0  0  0  0
  5 40  1  0  0  0  0
  5 41  1  0  0  0  0
  5 60  1  0  0  0  0
  6  7  1  0  0  0  0
  6 42  1  0  0  0  0
  6 43  1  0  0  0  0
  7  8  1  0  0  0  0
  7 44  1  0  0  0  0
  7 45  1  0  0  0  0
  8  9  1  0  0  0  0
  8 46  1  0  0  0  0
  8 47  1  0  0  0  0
  9 10  1  0  0  0  0
  9 48  1  0  0  0  0
  9 49  1  0  0  0  0
 10 11  1  0  0  0  0
 10 50  1  0  0  0  0
 11 12  2  0  0  0  0
 11 62  1  0  0  0  0
 12 13  1  0  0  0  0
 12 51  1  0  0  0  0
 13 19  1  0  0  0  0
 13 14  2  0  0  0  0
 14 15  1  0  0  0  0
 14 29  1  0  0  0  0
 15 16  2  0  0  0  0
 15 52  1  0  0  0  0
 16 17  1  0  0  0  0
 16 21  1  0  0  0  0
 17 18  2  0  0  0  0
 17 19  1  0  0  0  0
 19 20  1  0  0  0  0
 20 53  1  0  0  0  0
 20 54  1  0  0  0  0
 20 55  1  0  0  0  0
 21 26  2  0  0  0  0
 21 22  1  0  0  0  0
 22 23  2  0  0  0  0
 22 28  1  0  0  0  0
 23 24  1  0  0  0  0
 23 56  1  0  0  0  0
 24 25  2  0  0  0  0
 24 57  1  0  0  0  0
 25 26  1  0  0  0  0
 25 58  1  0  0  0  0
 26 27  1  0  0  0  0
 29 59  1  0  0  0  0
 29 62  2  0  0  0  0
 60 61  1  0  0  0  0
 62 63  1  0  0  0  0
M  CHG  2  60   1  62   1
M  END
$$$$
ZINC03815507
  -OEChem-08230709403D

 60 62  0     0  0  0  0  0  0999 V2000
   -7.1378   -6.1375    0.9277 C   0  0  0  0  0  0  0  0  0  0  0  0
   -7.3510   -4.6436    1.1801 C   0  0  0  0  0  0  0  0  0  0  0  0
   -9.0751   -4.4606   -0.5100 C   0  0  0  0  0  0  0  0  0  0  0  0
   -9.2543   -4.1614   -1.9998 C   0  0  0  0  0  0  0  0  0  0  0  0
   -7.7396   -2.5264    0.0715 C   0  0  0  0  0  0  0  0  0  0  0  0
   -6.2940   -2.0264    0.0410 C   0  0  0  0  0  0  0  0  0  0  0  0
   -6.2830   -0.4965    0.0604 C   0  0  0  0  0  0  0  0  0  0  0  0
   -4.8374    0.0035    0.0300 C   0  0  0  0  0  0  0  0  0  0  0  0
   -4.8268    1.4684    0.0486 N   0  0  0  0  0  0  0  0  0  0  0  0
   -3.6209    2.1537    0.0266 C   0  0  0  0  0  0  0  0  0  0  0  0
   -2.4322    1.4381   -0.0125 C   0  0  0  0  0  0  0  0  0  0  0  0
   -1.2302    2.1346   -0.0391 C   0  0  0  0  0  0  0  0  0  0  0  0
   -1.2728    3.5462   -0.0150 C   0  0  0  0  0  0  0  0  0  0  0  0
   -0.0687    4.2894   -0.0362 C   0  0  0  0  0  0  0  0  0  0  0  0
    1.1250    3.6218   -0.0753 C   0  0  0  0  0  0  0  0  0  0  0  0
    1.1339    2.1573   -0.0944 C   0  0  0  0  0  0  0  0  0  0  0  0
    2.1936    1.5574   -0.1292 O   0  0  0  0  0  0  0  0  0  0  0  0
   -0.0254    1.4708   -0.0732 N   0  0  0  0  0  0  0  0  0  0  0  0
   -0.0031    0.0061   -0.0926 C   0  0  0  0  0  0  0  0  0  0  0  0
    2.4003    4.3755   -0.0987 C   0  0  0  0  0  0  0  0  0  0  0  0
    2.9751    4.7426   -1.3161 C   0  0  0  0  0  0  0  0  0  0  0  0
    4.1614    5.4497   -1.3308 C   0  0  0  0  0  0  0  0  0  0  0  0
    4.7850    5.7850   -0.1424 C   0  0  0  0  0  0  0  0  0  0  0  0
    4.2235    5.4192    1.0676 C   0  0  0  0  0  0  0  0  0  0  0  0
    3.0348    4.7164    1.0965 C   0  0  0  0  0  0  0  0  0  0  0  0
    2.3320    4.2578    2.6161 Cl  0  0  0  0  0  0  0  0  0  0  0  0
    2.1978    4.3165   -2.8087 Cl  0  0  0  0  0  0  0  0  0  0  0  0
   -2.5164    4.1878    0.0251 C   0  0  0  0  0  0  0  0  0  0  0  0
   -6.8379   -6.6237    1.8560 H   0  0  0  0  0  0  0  0  0  0  0  0
   -8.0662   -6.5815    0.5685 H   0  0  0  0  0  0  0  0  0  0  0  0
   -6.3573   -6.2717    0.1787 H   0  0  0  0  0  0  0  0  0  0  0  0
   -6.4226   -4.1997    1.5393 H   0  0  0  0  0  0  0  0  0  0  0  0
   -8.1315   -4.5095    1.9291 H   0  0  0  0  0  0  0  0  0  0  0  0
   -9.1504   -5.5352   -0.3436 H   0  0  0  0  0  0  0  0  0  0  0  0
   -9.8516   -3.9495    0.0591 H   0  0  0  0  0  0  0  0  0  0  0  0
   -9.2706   -3.0826   -2.1543 H   0  0  0  0  0  0  0  0  0  0  0  0
   -8.4264   -4.5962   -2.5598 H   0  0  0  0  0  0  0  0  0  0  0  0
  -10.1935   -4.5924   -2.3465 H   0  0  0  0  0  0  0  0  0  0  0  0
   -8.2002   -2.2489    1.0196 H   0  0  0  0  0  0  0  0  0  0  0  0
   -8.2975   -2.0754   -0.7492 H   0  0  0  0  0  0  0  0  0  0  0  0
   -5.8057   -2.3817   -0.8664 H   0  0  0  0  0  0  0  0  0  0  0  0
   -5.7602   -2.4047    0.9128 H   0  0  0  0  0  0  0  0  0  0  0  0
   -6.7713   -0.1412    0.9679 H   0  0  0  0  0  0  0  0  0  0  0  0
   -6.8168   -0.1182   -0.8114 H   0  0  0  0  0  0  0  0  0  0  0  0
   -4.3490   -0.3518   -0.8775 H   0  0  0  0  0  0  0  0  0  0  0  0
   -4.3036   -0.3748    0.9018 H   0  0  0  0  0  0  0  0  0  0  0  0
   -5.6631    1.9591    0.0763 H   0  0  0  0  0  0  0  0  0  0  0  0
   -2.4415    0.3582   -0.0262 H   0  0  0  0  0  0  0  0  0  0  0  0
   -0.0917    5.3690   -0.0220 H   0  0  0  0  0  0  0  0  0  0  0  0
    1.0296   -0.3411   -0.1239 H   0  0  0  0  0  0  0  0  0  0  0  0
   -0.4881   -0.3766    0.8054 H   0  0  0  0  0  0  0  0  0  0  0  0
   -0.5343   -0.3537   -0.9738 H   0  0  0  0  0  0  0  0  0  0  0  0
    4.6053    5.7380   -2.2722 H   0  0  0  0  0  0  0  0  0  0  0  0
    5.7147    6.3344   -0.1595 H   0  0  0  0  0  0  0  0  0  0  0  0
    4.7154    5.6840    1.9919 H   0  0  0  0  0  0  0  0  0  0  0  0
   -2.5648    5.2666    0.0402 H   0  0  0  0  0  0  0  0  0  0  0  0
   -7.7361   -3.9955   -0.0912 N   0  3  0  0  0  0  0  0  0  0  0  0
   -7.0535   -4.2492   -0.8151 H   0  0  0  0  0  0  0  0  0  0  0  0
   -3.6989    3.5220    0.0462 N   0  3  0  0  0  0  0  0  0  0  0  0
   -4.5993    4.0146    0.0753 H   0  0  0  0  0  0  0  0  0  0  0  0
  1  2  1  0  0  0  0
  1 29  1  0  0  0  0
  1 30  1  0  0  0  0
  1 31  1  0  0  0  0
  2 32  1  0  0  0  0
  2 33  1  0  0  0  0
  2 57  1  0  0  0  0
  3  4  1  0  0  0  0
  3 34  1  0  0  0  0
  3 35  1  0  0  0  0
  3 57  1  0  0  0  0
  4 36  1  0  0  0  0
  4 37  1  0  0  0  0
  4 38  1  0  0  0  0
  5  6  1  0  0  0  0
  5 39  1  0  0  0  0
  5 40  1  0  0  0  0
  5 57  1  0  0  0  0
  6  7  1  0  0  0  0
  6 41  1  0  0  0  0
  6 42  1  0  0  0  0
  7  8  1  0  0  0  0
  7 43  1  0  0  0  0
  7 44  1  0  0  0  0
  8  9  1  0  0  0  0
  8 45  1  0  0  0  0
  8 46  1  0  0  0  0
  9 10  1  0  0  0  0
  9 47  1  0  0  0  0
 10 11  2  0  0  0  0
 10 59  1  0  0  0  0
 11 12  1  0  0  0  0
 11 48  1  0  0  0  0
 12 18  1  0  0  0  0
 12 13  2  0  0  0  0
 13 14  1  0  0  0  0
 13 28  1  0  0  0  0
 14 15  2  0  0  0  0
 14 49  1  0  0  0  0
 15 16  1  0  0  0  0
 15 20  1  0  0  0  0
 16 17  2  0  0  0  0
 16 18  1  0  0  0  0
 18 19  1  0  0  0  0
 19 50  1  0  0  0  0
 19 51  1  0  0  0  0
 19 52  1  0  0  0  0
 20 25  2  0  0  0  0
 20 21  1  0  0  0  0
 21 22  2  0  0  0  0
 21 27  1  0  0  0  0
 22 23  1  0  0  0  0
 22 53  1  0  0  0  0
 23 24  2  0  0  0  0
 23 54  1  0  0  0  0
 24 25  1  0  0  0  0
 24 55  1  0  0  0  0
 25 26  1  0  0  0  0
 28 56  1  0  0  0  0
 28 59  2  0  0  0  0
 57 58  1  0  0  0  0
 59 60  1  0  0  0  0
M  CHG  2  57   1  59   1
M  END
$$$$
ZINC03815508
  -OEChem-08230709403D

 69 71  0     0  0  0  0  0  0999 V2000
   -6.4337    5.8814    0.9585 C   0  0  0  0  0  0  0  0  0  0  0  0
   -4.9390    5.6534    1.1926 C   0  0  0  0  0  0  0  0  0  0  0  0
   -4.2857    7.2477   -0.5086 C   0  0  0  0  0  0  0  0  0  0  0  0
   -3.9661    7.3299   -2.0026 C   0  0  0  0  0  0  0  0  0  0  0  0
   -2.8140    5.4103    0.0578 C   0  0  0  0  0  0  0  0  0  0  0  0
   -2.7543    3.8817    0.0292 C   0  0  0  0  0  0  0  0  0  0  0  0
   -1.2931    3.4283    0.0313 C   0  0  0  0  0  0  0  0  0  0  0  0
   -1.2360    1.9646    0.0039 N   0  0  0  0  0  0  0  0  0  0  0  0
   -0.0131    1.3208    0.0006 C   0  0  0  0  0  0  0  0  0  0  0  0
    1.0959    2.0571    0.0171 N   0  0  0  0  0  0  0  0  0  0  0  0
    2.2900    1.4999    0.0094 C   0  0  0  0  0  0  0  0  0  0  0  0
    2.3750    0.0973   -0.0169 C   0  0  0  0  0  0  0  0  0  0  0  0
    3.6103   -0.5712   -0.0271 C   0  0  0  0  0  0  0  0  0  0  0  0
    3.5989   -1.9566   -0.0538 C   0  0  0  0  0  0  0  0  0  0  0  0
    2.3644   -2.6402   -0.0696 C   0  0  0  0  0  0  0  0  0  0  0  0
    1.2184   -1.9905   -0.0595 N   0  0  0  0  0  0  0  0  0  0  0  0
    1.1727   -0.6572   -0.0340 C   0  0  0  0  0  0  0  0  0  0  0  0
    0.0072    0.0017   -0.0243 N   0  0  0  0  0  0  0  0  0  0  0  0
    2.3574   -4.0273   -0.0958 N   0  0  0  0  0  0  0  0  0  0  0  0
    1.1868   -4.6952   -0.1111 C   0  0  0  0  0  0  0  0  0  0  0  0
    0.1371   -4.0821   -0.1019 O   0  0  0  0  0  0  0  0  0  0  0  0
    1.1801   -6.0427   -0.1365 N   0  0  0  0  0  0  0  0  0  0  0  0
   -0.0923   -6.7686   -0.1532 C   0  0  0  0  0  0  0  0  0  0  0  0
   -0.8898   -6.3714   -1.3970 C   0  0  0  0  0  0  0  0  0  0  0  0
    0.1797   -8.2740   -0.1810 C   0  0  0  0  0  0  0  0  0  0  0  0
   -0.8956   -6.4186    1.1010 C   0  0  0  0  0  0  0  0  0  0  0  0
    4.8732   -2.7145   -0.0661 C   0  0  0  0  0  0  0  0  0  0  0  0
    5.4742   -3.0543   -1.2781 C   0  0  0  0  0  0  0  0  0  0  0  0
    6.6641   -3.7558   -1.2828 C   0  0  0  0  0  0  0  0  0  0  0  0
    7.2541   -4.1305   -0.0892 C   0  0  0  0  0  0  0  0  0  0  0  0
    6.6601   -3.8016    1.1159 C   0  0  0  0  0  0  0  0  0  0  0  0
    5.4730   -3.0957    1.1341 C   0  0  0  0  0  0  0  0  0  0  0  0
    4.7287   -2.6843    2.6476 Cl  0  0  0  0  0  0  0  0  0  0  0  0
    4.7316   -2.5912   -2.7774 Cl  0  0  0  0  0  0  0  0  0  0  0  0
   -6.7974    5.1720    0.2152 H   0  0  0  0  0  0  0  0  0  0  0  0
   -6.9742    5.7368    1.8939 H   0  0  0  0  0  0  0  0  0  0  0  0
   -6.5943    6.8980    0.5995 H   0  0  0  0  0  0  0  0  0  0  0  0
   -4.7784    4.6368    1.5516 H   0  0  0  0  0  0  0  0  0  0  0  0
   -4.5753    6.3629    1.9359 H   0  0  0  0  0  0  0  0  0  0  0  0
   -5.2903    7.6312   -0.3303 H   0  0  0  0  0  0  0  0  0  0  0  0
   -3.5646    7.8439    0.0506 H   0  0  0  0  0  0  0  0  0  0  0  0
   -4.6290    6.6623   -2.5532 H   0  0  0  0  0  0  0  0  0  0  0  0
   -4.1110    8.3531   -2.3493 H   0  0  0  0  0  0  0  0  0  0  0  0
   -2.9308    7.0328   -2.1695 H   0  0  0  0  0  0  0  0  0  0  0  0
   -2.4032    5.7724    1.0002 H   0  0  0  0  0  0  0  0  0  0  0  0
   -2.2311    5.8122   -0.7709 H   0  0  0  0  0  0  0  0  0  0  0  0
   -3.2471    3.5157   -0.8714 H   0  0  0  0  0  0  0  0  0  0  0  0
   -3.2601    3.4819    0.9082 H   0  0  0  0  0  0  0  0  0  0  0  0
   -0.8003    3.7943    0.9319 H   0  0  0  0  0  0  0  0  0  0  0  0
   -0.7874    3.8281   -0.8477 H   0  0  0  0  0  0  0  0  0  0  0  0
   -2.0565    1.4475   -0.0118 H   0  0  0  0  0  0  0  0  0  0  0  0
    3.1829    2.1072    0.0233 H   0  0  0  0  0  0  0  0  0  0  0  0
    4.5404   -0.0224   -0.0142 H   0  0  0  0  0  0  0  0  0  0  0  0
    3.1950   -4.5165   -0.1031 H   0  0  0  0  0  0  0  0  0  0  0  0
    2.0177   -6.5318   -0.1438 H   0  0  0  0  0  0  0  0  0  0  0  0
   -0.3175   -6.6208   -2.2905 H   0  0  0  0  0  0  0  0  0  0  0  0
   -1.8365   -6.9115   -1.4094 H   0  0  0  0  0  0  0  0  0  0  0  0
   -1.0836   -5.2990   -1.3772 H   0  0  0  0  0  0  0  0  0  0  0  0
    0.7479   -8.5570    0.7051 H   0  0  0  0  0  0  0  0  0  0  0  0
   -0.7670   -8.8141   -0.1934 H   0  0  0  0  0  0  0  0  0  0  0  0
    0.7520   -8.5234   -1.0745 H   0  0  0  0  0  0  0  0  0  0  0  0
   -1.0894   -5.3461    1.1208 H   0  0  0  0  0  0  0  0  0  0  0  0
   -1.8423   -6.9587    1.0886 H   0  0  0  0  0  0  0  0  0  0  0  0
   -0.3275   -6.7016    1.9871 H   0  0  0  0  0  0  0  0  0  0  0  0
    7.1328   -4.0156   -2.2204 H   0  0  0  0  0  0  0  0  0  0  0  0
    8.1823   -4.6825   -0.0982 H   0  0  0  0  0  0  0  0  0  0  0  0
    7.1257   -4.0970    2.0445 H   0  0  0  0  0  0  0  0  0  0  0  0
   -4.2231    5.8320   -0.0881 N   0  3  0  0  0  0  0  0  0  0  0  0
   -4.6726    5.2509   -0.8053 H   0  0  0  0  0  0  0  0  0  0  0  0
  1  2  1  0  0  0  0
  1 35  1  0  0  0  0
  1 36  1  0  0  0  0
  1 37  1  0  0  0  0
  2 38  1  0  0  0  0
  2 39  1  0  0  0  0
  2 68  1  0  0  0  0
  3  4  1  0  0  0  0
  3 40  1  0  0  0  0
  3 41  1  0  0  0  0
  3 68  1  0  0  0  0
  4 42  1  0  0  0  0
  4 43  1  0  0  0  0
  4 44  1  0  0  0  0
  5  6  1  0  0  0  0
  5 45  1  0  0  0  0
  5 46  1  0  0  0  0
  5 68  1  0  0  0  0
  6  7  1  0  0  0  0
  6 47  1  0  0  0  0
  6 48  1  0  0  0  0
  7  8  1  0  0  0  0
  7 49  1  0  0  0  0
  7 50  1  0  0  0  0
  8  9  1  0  0  0  0
  8 51  1  0  0  0  0
  9 18  2  0  0  0  0
  9 10  1  0  0  0  0
 10 11  2  0  0  0  0
 11 12  1  0  0  0  0
 11 52  1  0  0  0  0
 12 17  2  0  0  0  0
 12 13  1  0  0  0  0
 13 14  2  0  0  0  0
 13 53  1  0  0  0  0
 14 15  1  0  0  0  0
 14 27  1  0  0  0  0
 15 16  2  0  0  0  0
 15 19  1  0  0  0  0
 16 17  1  0  0  0  0
 17 18  1  0  0  0  0
 19 20  1  0  0  0  0
 19 54  1  0  0  0  0
 20 21  2  0  0  0  0
 20 22  1  0  0  0  0
 22 23  1  0  0  0  0
 22 55  1  0  0  0  0
 23 24  1  0  0  0  0
 23 25  1  0  0  0  0
 23 26  1  0  0  0  0
 24 56  1  0  0  0  0
 24 57  1  0  0  0  0
 24 58  1  0  0  0  0
 25 59  1  0  0  0  0
 25 60  1  0  0  0  0
 25 61  1  0  0  0  0
 26 62  1  0  0  0  0
 26 63  1  0  0  0  0
 26 64  1  0  0  0  0
 27 32  2  0  0  0  0
 27 28  1  0  0  0  0
 28 29  2  0  0  0  0
 28 34  1  0  0  0  0
 29 30  1  0  0  0  0
 29 65  1  0  0  0  0
 30 31  2  0  0  0  0
 30 66  1  0  0  0  0
 31 32  1  0  0  0  0
 31 67  1  0  0  0  0
 32 33  1  0  0  0  0
 68 69  1  0  0  0  0
M  CHG  1  68   1
M  END
$$$$
ZINC03815509
  -OEChem-08230709403D

 63 66  0     0  0  0  0  0  0999 V2000
   -0.2742    8.9607   -1.2397 C   0  0  0  0  0  0  0  0  0  0  0  0
    0.4657    8.7038    0.0746 C   0  0  0  0  0  0  0  0  0  0  0  0
    1.8111    8.2001   -0.2128 N   0  0  0  0  0  0  0  0  0  0  0  0
    2.0195    6.8491   -0.3307 C   0  0  0  0  0  0  0  0  0  0  0  0
    3.3100    6.3473   -0.6065 C   0  0  0  0  0  0  0  0  0  0  0  0
    4.3993    7.2340   -0.7641 C   0  0  0  0  0  0  0  0  0  0  0  0
    4.1816    8.5806   -0.6451 C   0  0  0  0  0  0  0  0  0  0  0  0
    2.8308    9.0679   -0.3585 C   0  0  0  0  0  0  0  0  0  0  0  0
    2.6283   10.2643   -0.2511 O   0  0  0  0  0  0  0  0  0  0  0  0
    5.3027    9.5361   -0.8052 C   0  0  0  0  0  0  0  0  0  0  0  0
    5.7149   10.3187    0.2728 C   0  0  0  0  0  0  0  0  0  0  0  0
    6.7630   11.2030    0.1190 C   0  0  0  0  0  0  0  0  0  0  0  0
    7.3969   11.3223   -1.1049 C   0  0  0  0  0  0  0  0  0  0  0  0
    6.9891   10.5524   -2.1794 C   0  0  0  0  0  0  0  0  0  0  0  0
    5.9460    9.6605   -2.0363 C   0  0  0  0  0  0  0  0  0  0  0  0
    3.4806    4.9592   -0.7193 C   0  0  0  0  0  0  0  0  0  0  0  0
    2.4279    4.1787   -0.5631 N   0  0  0  0  0  0  0  0  0  0  0  0
    1.2277    4.6864   -0.3043 C   0  0  0  0  0  0  0  0  0  0  0  0
    1.0166    5.9891   -0.1941 N   0  0  0  0  0  0  0  0  0  0  0  0
    0.1598    3.8240   -0.1499 N   0  0  0  0  0  0  0  0  0  0  0  0
    0.3639    2.4399   -0.2056 C   0  0  0  0  0  0  0  0  0  0  0  0
    1.5479    1.8925    0.2709 C   0  0  0  0  0  0  0  0  0  0  0  0
    1.7482    0.5273    0.2160 C   0  0  0  0  0  0  0  0  0  0  0  0
    0.7672   -0.2973   -0.3150 C   0  0  0  0  0  0  0  0  0  0  0  0
   -0.4159    0.2487   -0.7907 C   0  0  0  0  0  0  0  0  0  0  0  0
   -0.6177    1.6137   -0.7370 C   0  0  0  0  0  0  0  0  0  0  0  0
    0.9653   -1.6415   -0.3687 O   0  0  0  0  0  0  0  0  0  0  0  0
   -0.1211   -2.4389   -0.8441 C   0  0  0  0  0  0  0  0  0  0  0  0
   -2.4568   -2.8449   -0.3516 C   0  0  0  0  0  0  0  0  0  0  0  0
   -3.5286   -2.5692    0.7048 C   0  0  0  0  0  0  0  0  0  0  0  0
   -0.7451   -3.6186    1.1762 C   0  0  0  0  0  0  0  0  0  0  0  0
    0.3546   -3.0851    2.0965 C   0  0  0  0  0  0  0  0  0  0  0  0
   -1.2752    9.3354   -1.0258 H   0  0  0  0  0  0  0  0  0  0  0  0
    0.2726    9.6990   -1.8261 H   0  0  0  0  0  0  0  0  0  0  0  0
   -0.3472    8.0306   -1.8033 H   0  0  0  0  0  0  0  0  0  0  0  0
   -0.0811    7.9654    0.6611 H   0  0  0  0  0  0  0  0  0  0  0  0
    0.5387    9.6338    0.6383 H   0  0  0  0  0  0  0  0  0  0  0  0
    5.3885    6.8552   -0.9748 H   0  0  0  0  0  0  0  0  0  0  0  0
    5.2176   10.2299    1.2274 H   0  0  0  0  0  0  0  0  0  0  0  0
    7.0863   11.8062    0.9544 H   0  0  0  0  0  0  0  0  0  0  0  0
    8.2138   12.0190   -1.2217 H   0  0  0  0  0  0  0  0  0  0  0  0
    7.4878   10.6499   -3.1324 H   0  0  0  0  0  0  0  0  0  0  0  0
    5.6286    9.0597   -2.8758 H   0  0  0  0  0  0  0  0  0  0  0  0
    4.4527    4.5384   -0.9299 H   0  0  0  0  0  0  0  0  0  0  0  0
   -0.7315    4.1773   -0.0029 H   0  0  0  0  0  0  0  0  0  0  0  0
    2.3099    2.5339    0.6884 H   0  0  0  0  0  0  0  0  0  0  0  0
    2.6688    0.1014    0.5868 H   0  0  0  0  0  0  0  0  0  0  0  0
   -1.1794   -0.3940   -1.2036 H   0  0  0  0  0  0  0  0  0  0  0  0
   -1.5389    2.0386   -1.1074 H   0  0  0  0  0  0  0  0  0  0  0  0
   -0.5708   -1.9590   -1.7134 H   0  0  0  0  0  0  0  0  0  0  0  0
    0.2476   -3.4256   -1.1239 H   0  0  0  0  0  0  0  0  0  0  0  0
   -2.6215   -2.1985   -1.2137 H   0  0  0  0  0  0  0  0  0  0  0  0
   -2.5137   -3.8878   -0.6634 H   0  0  0  0  0  0  0  0  0  0  0  0
   -4.5118   -2.7963    0.2928 H   0  0  0  0  0  0  0  0  0  0  0  0
   -3.3472   -3.1953    1.5784 H   0  0  0  0  0  0  0  0  0  0  0  0
   -3.4903   -1.5194    0.9959 H   0  0  0  0  0  0  0  0  0  0  0  0
   -1.6129   -3.9006    1.7725 H   0  0  0  0  0  0  0  0  0  0  0  0
   -0.3760   -4.4909    0.6367 H   0  0  0  0  0  0  0  0  0  0  0  0
    1.2055   -2.7625    1.4966 H   0  0  0  0  0  0  0  0  0  0  0  0
   -0.0284   -2.2398    2.6681 H   0  0  0  0  0  0  0  0  0  0  0  0
    0.6700   -3.8731    2.7803 H   0  0  0  0  0  0  0  0  0  0  0  0
   -1.1303   -2.5503    0.2301 N   0  3  0  0  0  0  0  0  0  0  0  0
   -1.1787   -1.6582    0.7361 H   0  0  0  0  0  0  0  0  0  0  0  0
  1  2  1  0  0  0  0
  1 33  1  0  0  0  0
  1 34  1  0  0  0  0
  1 35  1  0  0  0  0
  2  3  1  0  0  0  0
  2 36  1  0  0  0  0
  2 37  1  0  0  0  0
  3  8  1  0  0  0  0
  3  4  1  0  0  0  0
  4 19  2  0  0  0  0
  4  5  1  0  0  0  0
  5  6  1  0  0  0  0
  5 16  2  0  0  0  0
  6  7  2  0  0  0  0
  6 38  1  0  0  0  0
  7  8  1  0  0  0  0
  7 10  1  0  0  0  0
  8  9  2  0  0  0  0
 10 15  2  0  0  0  0
 10 11  1  0  0  0  0
 11 12  2  0  0  0  0
 11 39  1  0  0  0  0
 12 13  1  0  0  0  0
 12 40  1  0  0  0  0
 13 14  2  0  0  0  0
 13 41  1  0  0  0  0
 14 15  1  0  0  0  0
 14 42  1  0  0  0  0
 15 43  1  0  0  0  0
 16 17  1  0  0  0  0
 16 44  1  0  0  0  0
 17 18  2  0  0  0  0
 18 19  1  0  0  0  0
 18 20  1  0  0  0  0
 20 21  1  0  0  0  0
 20 45  1  0  0  0  0
 21 26  2  0  0  0  0
 21 22  1  0  0  0  0
 22 23  2  0  0  0  0
 22 46  1  0  0  0  0
 23 24  1  0  0  0  0
 23 47  1  0  0  0  0
 24 25  2  0  0  0  0
 24 27  1  0  0  0  0
 25 26  1  0  0  0  0
 25 48  1  0  0  0  0
 26 49  1  0  0  0  0
 27 28  1  0  0  0  0
 28 50  1  0  0  0  0
 28 51  1  0  0  0  0
 28 62  1  0  0  0  0
 29 30  1  0  0  0  0
 29 52  1  0  0  0  0
 29 53  1  0  0  0  0
 29 62  1  0  0  0  0
 30 54  1  0  0  0  0
 30 55  1  0  0  0  0
 30 56  1  0  0  0  0
 31 32  1  0  0  0  0
 31 57  1  0  0  0  0
 31 58  1  0  0  0  0
 31 62  1  0  0  0  0
 32 59  1  0  0  0  0
 32 60  1  0  0  0  0
 32 61  1  0  0  0  0
 62 63  1  0  0  0  0
M  CHG  1  62   1
M  END
$$$$
ZINC03815511
  -OEChem-08230709403D

 45 47  0     0  0  0  0  0  0999 V2000
   -4.5439    1.5768   -6.0800 C   0  0  0  0  0  0  0  0  0  0  0  0
   -3.1515    0.9473   -6.0019 C   0  0  0  0  0  0  0  0  0  0  0  0
   -2.2928    1.4637   -7.1581 C   0  0  0  0  0  0  0  0  0  0  0  0
   -3.2738   -0.5748   -6.0977 C   0  0  0  0  0  0  0  0  0  0  0  0
   -2.5235    1.3075   -4.7283 N   0  0  0  0  0  0  0  0  0  0  0  0
   -3.1063    0.9539   -3.5657 C   0  0  0  0  0  0  0  0  0  0  0  0
   -4.1532    0.3359   -3.5739 O   0  0  0  0  0  0  0  0  0  0  0  0
   -2.5285    1.2852   -2.3940 N   0  0  0  0  0  0  0  0  0  0  0  0
   -3.1286    0.9211   -1.1971 C   0  0  0  0  0  0  0  0  0  0  0  0
   -2.5101    1.2762    0.0208 C   0  0  0  0  0  0  0  0  0  0  0  0
   -3.1031    0.9095    1.2182 C   0  0  0  0  0  0  0  0  0  0  0  0
   -4.3146    0.2006    1.1631 C   0  0  0  0  0  0  0  0  0  0  0  0
   -4.9896   -0.2075    2.3263 C   0  0  0  0  0  0  0  0  0  0  0  0
   -6.1193   -0.8733    2.1965 N   0  0  0  0  0  0  0  0  0  0  0  0
   -6.6216   -1.1599    0.9973 C   0  0  0  0  0  0  0  0  0  0  0  0
   -6.0310   -0.8020   -0.1270 N   0  0  0  0  0  0  0  0  0  0  0  0
   -4.8781   -0.1217   -0.0992 C   0  0  0  0  0  0  0  0  0  0  0  0
   -4.2627    0.2514   -1.2228 N   0  0  0  0  0  0  0  0  0  0  0  0
   -7.8102   -1.8615    0.9273 N   0  0  0  0  0  0  0  0  0  0  0  0
   -1.2334    2.0298    0.0189 C   0  0  0  0  0  0  0  0  0  0  0  0
   -1.2431    3.4254    0.0314 C   0  0  0  0  0  0  0  0  0  0  0  0
   -0.0489    4.1218    0.0232 C   0  0  0  0  0  0  0  0  0  0  0  0
    1.1536    3.4387    0.0090 C   0  0  0  0  0  0  0  0  0  0  0  0
    1.1705    2.0558    0.0019 C   0  0  0  0  0  0  0  0  0  0  0  0
   -0.0162    1.3468    0.0094 C   0  0  0  0  0  0  0  0  0  0  0  0
    0.0021   -0.0041    0.0020 F   0  0  0  0  0  0  0  0  0  0  0  0
   -2.4169    4.0942    0.0456 F   0  0  0  0  0  0  0  0  0  0  0  0
   -4.4567    2.6611   -6.0117 H   0  0  0  0  0  0  0  0  0  0  0  0
   -5.0111    1.3087   -7.0275 H   0  0  0  0  0  0  0  0  0  0  0  0
   -5.1556    1.2088   -5.2563 H   0  0  0  0  0  0  0  0  0  0  0  0
   -1.3009    1.0153   -7.1025 H   0  0  0  0  0  0  0  0  0  0  0  0
   -2.7601    1.1957   -8.1057 H   0  0  0  0  0  0  0  0  0  0  0  0
   -2.2057    2.5481   -7.0898 H   0  0  0  0  0  0  0  0  0  0  0  0
   -3.8856   -0.9427   -5.2740 H   0  0  0  0  0  0  0  0  0  0  0  0
   -3.7411   -0.8428   -7.0453 H   0  0  0  0  0  0  0  0  0  0  0  0
   -2.2819   -1.0232   -6.0421 H   0  0  0  0  0  0  0  0  0  0  0  0
   -1.6881    1.8005   -4.7218 H   0  0  0  0  0  0  0  0  0  0  0  0
   -1.6932    1.7783   -2.3875 H   0  0  0  0  0  0  0  0  0  0  0  0
   -2.6499    1.1643    2.1648 H   0  0  0  0  0  0  0  0  0  0  0  0
   -4.5915    0.0194    3.3042 H   0  0  0  0  0  0  0  0  0  0  0  0
   -8.1936   -2.0811    0.0638 H   0  0  0  0  0  0  0  0  0  0  0  0
   -8.2611   -2.1344    1.7416 H   0  0  0  0  0  0  0  0  0  0  0  0
   -0.0550    5.2018    0.0284 H   0  0  0  0  0  0  0  0  0  0  0  0
    2.0836    3.9877    0.0031 H   0  0  0  0  0  0  0  0  0  0  0  0
    2.1130    1.5286   -0.0092 H   0  0  0  0  0  0  0  0  0  0  0  0
  1  2  1  0  0  0  0
  1 28  1  0  0  0  0
  1 29  1  0  0  0  0
  1 30  1  0  0  0  0
  2  3  1  0  0  0  0
  2  4  1  0  0  0  0
  2  5  1  0  0  0  0
  3 31  1  0  0  0  0
  3 32  1  0  0  0  0
  3 33  1  0  0  0  0
  4 34  1  0  0  0  0
  4 35  1  0  0  0  0
  4 36  1  0  0  0  0
  5  6  1  0  0  0  0
  5 37  1  0  0  0  0
  6  7  2  0  0  0  0
  6  8  1  0  0  0  0
  8  9  1  0  0  0  0
  8 38  1  0  0  0  0
  9 18  2  0  0  0  0
  9 10  1  0  0  0  0
 10 11  2  0  0  0  0
 10 20  1  0  0  0  0
 11 12  1  0  0  0  0
 11 39  1  0  0  0  0
 12 17  2  0  0  0  0
 12 13  1  0  0  0  0
 13 14  2  0  0  0  0
 13 40  1  0  0  0  0
 14 15  1  0  0  0  0
 15 16  2  0  0  0  0
 15 19  1  0  0  0  0
 16 17  1  0  0  0  0
 17 18  1  0  0  0  0
 19 41  1  0  0  0  0
 19 42  1  0  0  0  0
 20 25  2  0  0  0  0
 20 21  1  0  0  0  0
 21 22  2  0  0  0  0
 21 27  1  0  0  0  0
 22 23  1  0  0  0  0
 22 43  1  0  0  0  0
 23 24  2  0  0  0  0
 23 44  1  0  0  0  0
 24 25  1  0  0  0  0
 24 45  1  0  0  0  0
 25 26  1  0  0  0  0
M  END
$$$$
ZINC03815513
  -OEChem-08230709403D

 67 70  0     0  0  0  0  0  0999 V2000
    0.0021   -0.0041    0.0020 C   0  0  0  0  0  0  0  0  0  0  0  0
   -0.0178    1.4608    0.0101 N   0  0  0  0  0  0  0  0  0  0  0  0
   -1.2216    2.1269    0.0194 C   0  0  0  0  0  0  0  0  0  0  0  0
   -2.4255    1.4324    0.0320 C   0  0  0  0  0  0  0  0  0  0  0  0
   -3.6131    2.1500    0.0463 C   0  0  0  0  0  0  0  0  0  0  0  0
   -2.5054    4.1825    0.0466 C   0  0  0  0  0  0  0  0  0  0  0  0
   -1.2621    3.5384    0.0322 C   0  0  0  0  0  0  0  0  0  0  0  0
   -0.0566    4.2794    0.0247 C   0  0  0  0  0  0  0  0  0  0  0  0
    1.1365    3.6096    0.0101 C   0  0  0  0  0  0  0  0  0  0  0  0
    1.1430    2.1450    0.0027 C   0  0  0  0  0  0  0  0  0  0  0  0
    2.2020    1.5430   -0.0099 O   0  0  0  0  0  0  0  0  0  0  0  0
    2.4133    4.3610    0.0015 C   0  0  0  0  0  0  0  0  0  0  0  0
    3.0084    4.7175   -1.2093 C   0  0  0  0  0  0  0  0  0  0  0  0
    4.1956    5.4234   -1.2103 C   0  0  0  0  0  0  0  0  0  0  0  0
    4.8007    5.7666   -0.0147 C   0  0  0  0  0  0  0  0  0  0  0  0
    4.2192    5.4109    1.1890 C   0  0  0  0  0  0  0  0  0  0  0  0
    3.0290    4.7103    1.2040 C   0  0  0  0  0  0  0  0  0  0  0  0
    2.3008    4.2649    2.7157 Cl  0  0  0  0  0  0  0  0  0  0  0  0
    2.2543    4.2815   -2.7109 Cl  0  0  0  0  0  0  0  0  0  0  0  0
   -4.8205    1.4669    0.0541 N   0  0  0  0  0  0  0  0  0  0  0  0
   -4.8333    0.0019    0.0468 C   0  0  0  0  0  0  0  0  0  0  0  0
   -6.2801   -0.4955    0.0578 C   0  0  0  0  0  0  0  0  0  0  0  0
   -6.2935   -2.0254    0.0502 C   0  0  0  0  0  0  0  0  0  0  0  0
   -7.7403   -2.5229    0.0612 C   0  0  0  0  0  0  0  0  0  0  0  0
   -7.7536   -4.0528    0.0536 C   0  0  0  0  0  0  0  0  0  0  0  0
   -9.8090   -4.1845    1.3275 C   0  0  0  0  0  0  0  0  0  0  0  0
  -11.2727   -4.6277    1.2673 C   0  0  0  0  0  0  0  0  0  0  0  0
  -10.6675   -6.4214   -0.2410 C   0  0  0  0  0  0  0  0  0  0  0  0
   -9.2038   -5.9781   -0.1808 C   0  0  0  0  0  0  0  0  0  0  0  0
  -12.7229   -6.5531    1.0329 C   0  0  0  0  0  0  0  0  0  0  0  0
    1.0345   -0.3534   -0.0097 H   0  0  0  0  0  0  0  0  0  0  0  0
   -0.4983   -0.3791    0.8948 H   0  0  0  0  0  0  0  0  0  0  0  0
   -0.5153   -0.3696   -0.8850 H   0  0  0  0  0  0  0  0  0  0  0  0
   -2.4366    0.3525    0.0263 H   0  0  0  0  0  0  0  0  0  0  0  0
   -2.5521    5.2614    0.0521 H   0  0  0  0  0  0  0  0  0  0  0  0
   -0.0780    5.3592    0.0300 H   0  0  0  0  0  0  0  0  0  0  0  0
    4.6545    5.7045   -2.1467 H   0  0  0  0  0  0  0  0  0  0  0  0
    5.7314    6.3144   -0.0210 H   0  0  0  0  0  0  0  0  0  0  0  0
    4.6967    5.6818    2.1190 H   0  0  0  0  0  0  0  0  0  0  0  0
   -5.6562    1.9591    0.0644 H   0  0  0  0  0  0  0  0  0  0  0  0
   -4.3310   -0.3613   -0.8498 H   0  0  0  0  0  0  0  0  0  0  0  0
   -4.3143   -0.3703    0.9301 H   0  0  0  0  0  0  0  0  0  0  0  0
   -6.7824   -0.1322    0.9544 H   0  0  0  0  0  0  0  0  0  0  0  0
   -6.7990   -0.1232   -0.8255 H   0  0  0  0  0  0  0  0  0  0  0  0
   -5.7912   -2.3887   -0.8464 H   0  0  0  0  0  0  0  0  0  0  0  0
   -5.7745   -2.3977    0.9335 H   0  0  0  0  0  0  0  0  0  0  0  0
   -8.2426   -2.1596    0.9578 H   0  0  0  0  0  0  0  0  0  0  0  0
   -8.2592   -2.1506   -0.8221 H   0  0  0  0  0  0  0  0  0  0  0  0
   -7.2513   -4.4161   -0.8430 H   0  0  0  0  0  0  0  0  0  0  0  0
   -7.2347   -4.4251    0.9369 H   0  0  0  0  0  0  0  0  0  0  0  0
   -9.3092   -4.6914    2.1529 H   0  0  0  0  0  0  0  0  0  0  0  0
   -9.7616   -3.1063    1.4803 H   0  0  0  0  0  0  0  0  0  0  0  0
  -11.7794   -4.1004    0.4590 H   0  0  0  0  0  0  0  0  0  0  0  0
  -11.7614   -4.3982    2.2142 H   0  0  0  0  0  0  0  0  0  0  0  0
  -11.1673   -5.9145   -1.0665 H   0  0  0  0  0  0  0  0  0  0  0  0
  -10.7149   -7.4995   -0.3942 H   0  0  0  0  0  0  0  0  0  0  0  0
   -8.7151   -6.2076   -1.1277 H   0  0  0  0  0  0  0  0  0  0  0  0
   -8.6971   -6.5054    0.6274 H   0  0  0  0  0  0  0  0  0  0  0  0
  -12.7354   -7.6368    0.9165 H   0  0  0  0  0  0  0  0  0  0  0  0
  -13.1925   -6.2838    1.9790 H   0  0  0  0  0  0  0  0  0  0  0  0
  -13.2715   -6.0930    0.2110 H   0  0  0  0  0  0  0  0  0  0  0  0
   -3.6891    3.5189    0.0539 N   0  3  0  0  0  0  0  0  0  0  0  0
   -4.5890    4.0130    0.0644 H   0  0  0  0  0  0  0  0  0  0  0  0
   -9.1570   -4.5180    0.0436 N   0  3  0  0  0  0  0  0  0  0  0  0
   -9.6592   -4.0470   -0.7181 H   0  0  0  0  0  0  0  0  0  0  0  0
  -11.3195   -6.0880    1.0428 N   0  3  0  0  0  0  0  0  0  0  0  0
  -10.8173   -6.5591    1.8045 H   0  0  0  0  0  0  0  0  0  0  0  0
  1  2  1  0  0  0  0
  1 31  1  0  0  0  0
  1 32  1  0  0  0  0
  1 33  1  0  0  0  0
  2 10  1  0  0  0  0
  2  3  1  0  0  0  0
  3  7  2  0  0  0  0
  3  4  1  0  0  0  0
  4  5  2  0  0  0  0
  4 34  1  0  0  0  0
  5 20  1  0  0  0  0
  5 62  1  0  0  0  0
  6  7  1  0  0  0  0
  6 35  1  0  0  0  0
  6 62  2  0  0  0  0
  7  8  1  0  0  0  0
  8  9  2  0  0  0  0
  8 36  1  0  0  0  0
  9 10  1  0  0  0  0
  9 12  1  0  0  0  0
 10 11  2  0  0  0  0
 12 17  2  0  0  0  0
 12 13  1  0  0  0  0
 13 14  2  0  0  0  0
 13 19  1  0  0  0  0
 14 15  1  0  0  0  0
 14 37  1  0  0  0  0
 15 16  2  0  0  0  0
 15 38  1  0  0  0  0
 16 17  1  0  0  0  0
 16 39  1  0  0  0  0
 17 18  1  0  0  0  0
 20 21  1  0  0  0  0
 20 40  1  0  0  0  0
 21 22  1  0  0  0  0
 21 41  1  0  0  0  0
 21 42  1  0  0  0  0
 22 23  1  0  0  0  0
 22 43  1  0  0  0  0
 22 44  1  0  0  0  0
 23 24  1  0  0  0  0
 23 45  1  0  0  0  0
 23 46  1  0  0  0  0
 24 25  1  0  0  0  0
 24 47  1  0  0  0  0
 24 48  1  0  0  0  0
 25 49  1  0  0  0  0
 25 50  1  0  0  0  0
 25 64  1  0  0  0  0
 26 27  1  0  0  0  0
 26 51  1  0  0  0  0
 26 52  1  0  0  0  0
 26 64  1  0  0  0  0
 27 53  1  0  0  0  0
 27 54  1  0  0  0  0
 27 66  1  0  0  0  0
 28 29  1  0  0  0  0
 28 55  1  0  0  0  0
 28 56  1  0  0  0  0
 28 66  1  0  0  0  0
 29 57  1  0  0  0  0
 29 58  1  0  0  0  0
 29 64  1  0  0  0  0
 30 59  1  0  0  0  0
 30 60  1  0  0  0  0
 30 61  1  0  0  0  0
 30 66  1  0  0  0  0
 62 63  1  0  0  0  0
 64 65  1  0  0  0  0
 66 67  1  0  0  0  0
M  CHG  3  62   1  64   1  66   1
M  END
$$$$
ZINC03815514
  -OEChem-08230709403D

 71 75  0     0  0  0  0  0  0999 V2000
    5.9751    6.4973   -0.1156 C   0  0  0  0  0  0  0  0  0  0  0  0
    6.8914    5.8003   -1.0216 N   0  0  0  0  0  0  0  0  0  0  0  0
    6.7829    4.4387   -1.1873 C   0  0  0  0  0  0  0  0  0  0  0  0
    5.8150    3.7083   -0.5081 C   0  0  0  0  0  0  0  0  0  0  0  0
    5.7461    2.3368   -0.7095 C   0  0  0  0  0  0  0  0  0  0  0  0
    6.5837    1.7175   -1.5349 N   0  0  0  0  0  0  0  0  0  0  0  0
    7.5164    2.3625   -2.2006 C   0  0  0  0  0  0  0  0  0  0  0  0
    7.6565    3.7484   -2.0560 C   0  0  0  0  0  0  0  0  0  0  0  0
    8.6542    4.4585   -2.7649 C   0  0  0  0  0  0  0  0  0  0  0  0
    8.7556    5.8125   -2.5947 C   0  0  0  0  0  0  0  0  0  0  0  0
    7.8300    6.4986   -1.6903 C   0  0  0  0  0  0  0  0  0  0  0  0
    7.9121    7.7045   -1.5384 O   0  0  0  0  0  0  0  0  0  0  0  0
    9.7912    6.5803   -3.3248 C   0  0  0  0  0  0  0  0  0  0  0  0
   11.0501    6.7759   -2.7554 C   0  0  0  0  0  0  0  0  0  0  0  0
   12.0127    7.4880   -3.4437 C   0  0  0  0  0  0  0  0  0  0  0  0
   11.7277    8.0159   -4.6901 C   0  0  0  0  0  0  0  0  0  0  0  0
   10.4800    7.8305   -5.2577 C   0  0  0  0  0  0  0  0  0  0  0  0
    9.5101    7.1158   -4.5824 C   0  0  0  0  0  0  0  0  0  0  0  0
    7.9445    6.8847   -5.2961 Cl  0  0  0  0  0  0  0  0  0  0  0  0
   11.4074    6.1204   -1.1881 Cl  0  0  0  0  0  0  0  0  0  0  0  0
    4.7835    1.5979   -0.0364 N   0  0  0  0  0  0  0  0  0  0  0  0
    4.7780    0.2015   -0.1343 C   0  0  0  0  0  0  0  0  0  0  0  0
    3.5733   -0.4845   -0.2159 C   0  0  0  0  0  0  0  0  0  0  0  0
    3.5689   -1.8617   -0.3168 C   0  0  0  0  0  0  0  0  0  0  0  0
    4.7671   -2.5606   -0.3270 C   0  0  0  0  0  0  0  0  0  0  0  0
    5.9708   -1.8766   -0.2402 C   0  0  0  0  0  0  0  0  0  0  0  0
    5.9771   -0.4990   -0.1441 C   0  0  0  0  0  0  0  0  0  0  0  0
    4.7618   -3.9172   -0.4216 O   0  0  0  0  0  0  0  0  0  0  0  0
    3.4867   -4.5565   -0.5076 C   0  0  0  0  0  0  0  0  0  0  0  0
    3.6810   -6.0709   -0.6067 C   0  0  0  0  0  0  0  0  0  0  0  0
    2.3158   -6.7553   -0.6987 C   0  0  0  0  0  0  0  0  0  0  0  0
    3.1589   -8.5745   -2.0569 C   0  0  0  0  0  0  0  0  0  0  0  0
    3.4064  -10.0846   -2.0822 C   0  0  0  0  0  0  0  0  0  0  0  0
    1.4696  -10.4256   -0.6710 C   0  0  0  0  0  0  0  0  0  0  0  0
    1.2222   -8.9154   -0.6458 C   0  0  0  0  0  0  0  0  0  0  0  0
    2.3128  -12.2447   -2.0292 C   0  0  0  0  0  0  0  0  0  0  0  0
    6.4044    6.5233    0.8860 H   0  0  0  0  0  0  0  0  0  0  0  0
    5.8184    7.5160   -0.4703 H   0  0  0  0  0  0  0  0  0  0  0  0
    5.0209    5.9711   -0.0884 H   0  0  0  0  0  0  0  0  0  0  0  0
    5.1284    4.1996    0.1654 H   0  0  0  0  0  0  0  0  0  0  0  0
    8.1770    1.8212   -2.8617 H   0  0  0  0  0  0  0  0  0  0  0  0
    9.3268    3.9389   -3.4311 H   0  0  0  0  0  0  0  0  0  0  0  0
   12.9889    7.6364   -3.0061 H   0  0  0  0  0  0  0  0  0  0  0  0
   12.4827    8.5755   -5.2223 H   0  0  0  0  0  0  0  0  0  0  0  0
   10.2638    8.2452   -6.2312 H   0  0  0  0  0  0  0  0  0  0  0  0
    4.1145    2.0490    0.5019 H   0  0  0  0  0  0  0  0  0  0  0  0
    2.6402    0.0592   -0.2043 H   0  0  0  0  0  0  0  0  0  0  0  0
    2.6323   -2.3951   -0.3844 H   0  0  0  0  0  0  0  0  0  0  0  0
    6.9032   -2.4215   -0.2474 H   0  0  0  0  0  0  0  0  0  0  0  0
    6.9143    0.0334   -0.0769 H   0  0  0  0  0  0  0  0  0  0  0  0
    2.9022   -4.3227    0.3823 H   0  0  0  0  0  0  0  0  0  0  0  0
    2.9600   -4.1991   -1.3924 H   0  0  0  0  0  0  0  0  0  0  0  0
    4.2655   -6.3047   -1.4965 H   0  0  0  0  0  0  0  0  0  0  0  0
    4.2077   -6.4282    0.2782 H   0  0  0  0  0  0  0  0  0  0  0  0
    1.7314   -6.5215    0.1911 H   0  0  0  0  0  0  0  0  0  0  0  0
    1.7891   -6.3980   -1.5836 H   0  0  0  0  0  0  0  0  0  0  0  0
    2.5177   -8.2970   -2.8936 H   0  0  0  0  0  0  0  0  0  0  0  0
    4.1103   -8.0487   -2.1376 H   0  0  0  0  0  0  0  0  0  0  0  0
    4.0696  -10.3582   -1.2616 H   0  0  0  0  0  0  0  0  0  0  0  0
    3.8670  -10.3619   -3.0304 H   0  0  0  0  0  0  0  0  0  0  0  0
    2.1109  -10.7030    0.1656 H   0  0  0  0  0  0  0  0  0  0  0  0
    0.5183  -10.9514   -0.5900 H   0  0  0  0  0  0  0  0  0  0  0  0
    0.7615   -8.6382    0.3024 H   0  0  0  0  0  0  0  0  0  0  0  0
    0.5589   -8.6419   -1.4664 H   0  0  0  0  0  0  0  0  0  0  0  0
    1.3425  -12.7393   -1.9839 H   0  0  0  0  0  0  0  0  0  0  0  0
    2.8006  -12.4874   -2.9733 H   0  0  0  0  0  0  0  0  0  0  0  0
    2.9337  -12.5863   -1.2011 H   0  0  0  0  0  0  0  0  0  0  0  0
    2.5191   -8.2179   -0.7732 N   0  3  0  0  0  0  0  0  0  0  0  0
    3.1320   -8.5092   -0.0026 H   0  0  0  0  0  0  0  0  0  0  0  0
    2.1094  -10.7822   -1.9547 N   0  3  0  0  0  0  0  0  0  0  0  0
    1.4965  -10.4909   -2.7253 H   0  0  0  0  0  0  0  0  0  0  0  0
  1  2  1  0  0  0  0
  1 37  1  0  0  0  0
  1 38  1  0  0  0  0
  1 39  1  0  0  0  0
  2 11  1  0  0  0  0
  2  3  1  0  0  0  0
  3  8  2  0  0  0  0
  3  4  1  0  0  0  0
  4  5  2  0  0  0  0
  4 40  1  0  0  0  0
  5  6  1  0  0  0  0
  5 21  1  0  0  0  0
  6  7  2  0  0  0  0
  7  8  1  0  0  0  0
  7 41  1  0  0  0  0
  8  9  1  0  0  0  0
  9 10  2  0  0  0  0
  9 42  1  0  0  0  0
 10 11  1  0  0  0  0
 10 13  1  0  0  0  0
 11 12  2  0  0  0  0
 13 18  2  0  0  0  0
 13 14  1  0  0  0  0
 14 15  2  0  0  0  0
 14 20  1  0  0  0  0
 15 16  1  0  0  0  0
 15 43  1  0  0  0  0
 16 17  2  0  0  0  0
 16 44  1  0  0  0  0
 17 18  1  0  0  0  0
 17 45  1  0  0  0  0
 18 19  1  0  0  0  0
 21 22  1  0  0  0  0
 21 46  1  0  0  0  0
 22 27  2  0  0  0  0
 22 23  1  0  0  0  0
 23 24  2  0  0  0  0
 23 47  1  0  0  0  0
 24 25  1  0  0  0  0
 24 48  1  0  0  0  0
 25 26  2  0  0  0  0
 25 28  1  0  0  0  0
 26 27  1  0  0  0  0
 26 49  1  0  0  0  0
 27 50  1  0  0  0  0
 28 29  1  0  0  0  0
 29 30  1  0  0  0  0
 29 51  1  0  0  0  0
 29 52  1  0  0  0  0
 30 31  1  0  0  0  0
 30 53  1  0  0  0  0
 30 54  1  0  0  0  0
 31 55  1  0  0  0  0
 31 56  1  0  0  0  0
 31 68  1  0  0  0  0
 32 33  1  0  0  0  0
 32 57  1  0  0  0  0
 32 58  1  0  0  0  0
 32 68  1  0  0  0  0
 33 59  1  0  0  0  0
 33 60  1  0  0  0  0
 33 70  1  0  0  0  0
 34 35  1  0  0  0  0
 34 61  1  0  0  0  0
 34 62  1  0  0  0  0
 34 70  1  0  0  0  0
 35 63  1  0  0  0  0
 35 64  1  0  0  0  0
 35 68  1  0  0  0  0
 36 65  1  0  0  0  0
 36 66  1  0  0  0  0
 36 67  1  0  0  0  0
 36 70  1  0  0  0  0
 68 69  1  0  0  0  0
 70 71  1  0  0  0  0
M  CHG  2  68   1  70   1
M  END
$$$$
ZINC03815515
  -OEChem-08230709403D

 47 49  0     0  0  0  0  0  0999 V2000
   -4.5603    1.9866   -6.0735 C   0  0  0  0  0  0  0  0  0  0  0  0
   -3.1674    1.3577   -6.0010 C   0  0  0  0  0  0  0  0  0  0  0  0
   -2.3114    1.8797   -7.1567 C   0  0  0  0  0  0  0  0  0  0  0  0
   -3.2890   -0.1641   -6.1033 C   0  0  0  0  0  0  0  0  0  0  0  0
   -2.5370    1.7127   -4.7272 N   0  0  0  0  0  0  0  0  0  0  0  0
   -3.1172    1.3536   -3.5649 C   0  0  0  0  0  0  0  0  0  0  0  0
   -4.1638    0.7351   -3.5736 O   0  0  0  0  0  0  0  0  0  0  0  0
   -2.5372    1.6803   -2.3930 N   0  0  0  0  0  0  0  0  0  0  0  0
   -3.1350    1.3103   -1.1956 C   0  0  0  0  0  0  0  0  0  0  0  0
   -2.5145    1.6603    0.0234 C   0  0  0  0  0  0  0  0  0  0  0  0
   -3.1084    1.2999    1.2213 C   0  0  0  0  0  0  0  0  0  0  0  0
   -4.3185    0.5855    1.1698 C   0  0  0  0  0  0  0  0  0  0  0  0
   -4.9876    0.1816    2.3341 C   0  0  0  0  0  0  0  0  0  0  0  0
   -6.6724   -0.8028    1.0826 C   0  0  0  0  0  0  0  0  0  0  0  0
   -6.0888   -0.4490   -0.1175 C   0  0  0  0  0  0  0  0  0  0  0  0
   -4.8796    0.2641   -0.0951 C   0  0  0  0  0  0  0  0  0  0  0  0
   -4.2648    0.6353   -1.2213 N   0  0  0  0  0  0  0  0  0  0  0  0
   -7.8698   -1.5090    1.0725 N   0  0  0  0  0  0  0  0  0  0  0  0
   -1.2380    2.4142    0.0210 C   0  0  0  0  0  0  0  0  0  0  0  0
   -1.2484    3.8091    0.0339 C   0  0  0  0  0  0  0  0  0  0  0  0
   -0.0556    4.5057    0.0263 C   0  0  0  0  0  0  0  0  0  0  0  0
    1.1473    3.8231    0.0116 C   0  0  0  0  0  0  0  0  0  0  0  0
    1.1644    2.4401    0.0040 C   0  0  0  0  0  0  0  0  0  0  0  0
   -0.0215    1.7317    0.0116 C   0  0  0  0  0  0  0  0  0  0  0  0
    0.0021   -0.0041    0.0020 Cl  0  0  0  0  0  0  0  0  0  0  0  0
   -2.7571    4.6676    0.0523 Cl  0  0  0  0  0  0  0  0  0  0  0  0
   -4.4737    3.0707   -6.0007 H   0  0  0  0  0  0  0  0  0  0  0  0
   -5.0294    1.7224   -7.0213 H   0  0  0  0  0  0  0  0  0  0  0  0
   -5.1701    1.6147   -5.2502 H   0  0  0  0  0  0  0  0  0  0  0  0
   -1.3191    1.4316   -7.1051 H   0  0  0  0  0  0  0  0  0  0  0  0
   -2.7805    1.6155   -8.1045 H   0  0  0  0  0  0  0  0  0  0  0  0
   -2.2248    2.9638   -7.0839 H   0  0  0  0  0  0  0  0  0  0  0  0
   -3.8988   -0.5360   -5.2799 H   0  0  0  0  0  0  0  0  0  0  0  0
   -3.7580   -0.4283   -7.0510 H   0  0  0  0  0  0  0  0  0  0  0  0
   -2.2966   -0.6121   -6.0516 H   0  0  0  0  0  0  0  0  0  0  0  0
   -1.7019    2.2062   -4.7202 H   0  0  0  0  0  0  0  0  0  0  0  0
   -1.7022    2.1738   -2.3861 H   0  0  0  0  0  0  0  0  0  0  0  0
   -2.6556    1.5594    2.1668 H   0  0  0  0  0  0  0  0  0  0  0  0
   -4.5735    0.4185    3.3030 H   0  0  0  0  0  0  0  0  0  0  0  0
   -6.5536   -0.7152   -1.0553 H   0  0  0  0  0  0  0  0  0  0  0  0
   -8.2901   -1.7632    1.9089 H   0  0  0  0  0  0  0  0  0  0  0  0
   -8.2851   -1.7476    0.2289 H   0  0  0  0  0  0  0  0  0  0  0  0
   -0.0623    5.5857    0.0321 H   0  0  0  0  0  0  0  0  0  0  0  0
    2.0771    4.3724    0.0057 H   0  0  0  0  0  0  0  0  0  0  0  0
    2.1069    1.9129   -0.0074 H   0  0  0  0  0  0  0  0  0  0  0  0
   -6.1553   -0.5070    2.3210 N   0  3  0  0  0  0  0  0  0  0  0  0
   -6.6268   -0.7916    3.1876 H   0  0  0  0  0  0  0  0  0  0  0  0
  1  2  1  0  0  0  0
  1 27  1  0  0  0  0
  1 28  1  0  0  0  0
  1 29  1  0  0  0  0
  2  3  1  0  0  0  0
  2  4  1  0  0  0  0
  2  5  1  0  0  0  0
  3 30  1  0  0  0  0
  3 31  1  0  0  0  0
  3 32  1  0  0  0  0
  4 33  1  0  0  0  0
  4 34  1  0  0  0  0
  4 35  1  0  0  0  0
  5  6  1  0  0  0  0
  5 36  1  0  0  0  0
  6  7  2  0  0  0  0
  6  8  1  0  0  0  0
  8  9  1  0  0  0  0
  8 37  1  0  0  0  0
  9 17  2  0  0  0  0
  9 10  1  0  0  0  0
 10 11  2  0  0  0  0
 10 19  1  0  0  0  0
 11 12  1  0  0  0  0
 11 38  1  0  0  0  0
 12 16  2  0  0  0  0
 12 13  1  0  0  0  0
 13 39  1  0  0  0  0
 13 46  2  0  0  0  0
 14 15  2  0  0  0  0
 14 18  1  0  0  0  0
 14 46  1  0  0  0  0
 15 16  1  0  0  0  0
 15 40  1  0  0  0  0
 16 17  1  0  0  0  0
 18 41  1  0  0  0  0
 18 42  1  0  0  0  0
 19 24  2  0  0  0  0
 19 20  1  0  0  0  0
 20 21  2  0  0  0  0
 20 26  1  0  0  0  0
 21 22  1  0  0  0  0
 21 43  1  0  0  0  0
 22 23  2  0  0  0  0
 22 44  1  0  0  0  0
 23 24  1  0  0  0  0
 23 45  1  0  0  0  0
 24 25  1  0  0  0  0
 46 47  1  0  0  0  0
M  CHG  1  46   1
M  END
$$$$
ZINC03815517
  -OEChem-08230709403D

 64 67  0     0  0  0  0  0  0999 V2000
    2.1337   -7.2540    1.5393 C   0  0  0  0  0  0  0  0  0  0  0  0
    3.3723   -6.3811    1.7516 C   0  0  0  0  0  0  0  0  0  0  0  0
    4.7329   -7.9270    0.4781 C   0  0  0  0  0  0  0  0  0  0  0  0
    5.7036   -8.2566    1.6138 C   0  0  0  0  0  0  0  0  0  0  0  0
    3.6500   -6.0682   -0.6333 C   0  0  0  0  0  0  0  0  0  0  0  0
    3.4202   -4.5578   -0.5518 C   0  0  0  0  0  0  0  0  0  0  0  0
    4.6804   -3.8866   -0.4932 O   0  0  0  0  0  0  0  0  0  0  0  0
    4.6539   -2.5291   -0.4170 C   0  0  0  0  0  0  0  0  0  0  0  0
    5.8416   -1.8150   -0.3571 C   0  0  0  0  0  0  0  0  0  0  0  0
    5.8157   -0.4365   -0.2793 C   0  0  0  0  0  0  0  0  0  0  0  0
    4.6001    0.2348   -0.2614 C   0  0  0  0  0  0  0  0  0  0  0  0
    3.4114   -0.4813   -0.3161 C   0  0  0  0  0  0  0  0  0  0  0  0
    3.4393   -1.8594   -0.3987 C   0  0  0  0  0  0  0  0  0  0  0  0
    4.5729    1.6322   -0.1825 N   0  0  0  0  0  0  0  0  0  0  0  0
    5.5130    2.3844   -0.8722 C   0  0  0  0  0  0  0  0  0  0  0  0
    5.5507    3.7601   -0.6897 C   0  0  0  0  0  0  0  0  0  0  0  0
    6.4962    4.5037   -1.3853 C   0  0  0  0  0  0  0  0  0  0  0  0
    7.3803    3.8224   -2.2508 C   0  0  0  0  0  0  0  0  0  0  0  0
    8.3566    4.5463   -2.9754 C   0  0  0  0  0  0  0  0  0  0  0  0
    8.4274    5.9043   -2.8234 C   0  0  0  0  0  0  0  0  0  0  0  0
    7.4907    6.5808   -1.9233 C   0  0  0  0  0  0  0  0  0  0  0  0
    7.5449    7.7903   -1.7886 O   0  0  0  0  0  0  0  0  0  0  0  0
    6.5733    5.8697   -1.2387 N   0  0  0  0  0  0  0  0  0  0  0  0
    5.6469    6.5572   -0.3358 C   0  0  0  0  0  0  0  0  0  0  0  0
    9.4399    6.6863   -3.5706 C   0  0  0  0  0  0  0  0  0  0  0  0
   10.6976    6.9187   -3.0125 C   0  0  0  0  0  0  0  0  0  0  0  0
   11.6391    7.6432   -3.7170 C   0  0  0  0  0  0  0  0  0  0  0  0
   11.3334    8.1483   -4.9680 C   0  0  0  0  0  0  0  0  0  0  0  0
   10.0865    7.9268   -5.5242 C   0  0  0  0  0  0  0  0  0  0  0  0
    9.1380    7.1986   -4.8330 C   0  0  0  0  0  0  0  0  0  0  0  0
    7.5736    6.9218   -5.5329 Cl  0  0  0  0  0  0  0  0  0  0  0  0
   11.0806    6.2923   -1.4394 Cl  0  0  0  0  0  0  0  0  0  0  0  0
    7.2722    2.4320   -2.3758 C   0  0  0  0  0  0  0  0  0  0  0  0
    6.3594    1.7741   -1.6948 N   0  0  0  0  0  0  0  0  0  0  0  0
    1.4093   -7.0550    2.3291 H   0  0  0  0  0  0  0  0  0  0  0  0
    1.6884   -7.0237    0.5714 H   0  0  0  0  0  0  0  0  0  0  0  0
    2.4210   -8.3051    1.5662 H   0  0  0  0  0  0  0  0  0  0  0  0
    3.8815   -6.6890    2.6648 H   0  0  0  0  0  0  0  0  0  0  0  0
    3.0706   -5.3373    1.8380 H   0  0  0  0  0  0  0  0  0  0  0  0
    3.8726   -8.5942    0.5302 H   0  0  0  0  0  0  0  0  0  0  0  0
    5.2365   -8.0576   -0.4797 H   0  0  0  0  0  0  0  0  0  0  0  0
    6.1185   -9.2527    1.4596 H   0  0  0  0  0  0  0  0  0  0  0  0
    6.5111   -7.5245    1.6256 H   0  0  0  0  0  0  0  0  0  0  0  0
    5.1728   -8.2275    2.5654 H   0  0  0  0  0  0  0  0  0  0  0  0
    2.6941   -6.5745   -0.7673 H   0  0  0  0  0  0  0  0  0  0  0  0
    4.3011   -6.2916   -1.4784 H   0  0  0  0  0  0  0  0  0  0  0  0
    2.8430   -4.3259    0.3433 H   0  0  0  0  0  0  0  0  0  0  0  0
    2.8723   -4.2256   -1.4336 H   0  0  0  0  0  0  0  0  0  0  0  0
    6.7869   -2.3372   -0.3710 H   0  0  0  0  0  0  0  0  0  0  0  0
    6.7405    0.1194   -0.2326 H   0  0  0  0  0  0  0  0  0  0  0  0
    2.4656    0.0398   -0.2977 H   0  0  0  0  0  0  0  0  0  0  0  0
    2.5151   -2.4163   -0.4450 H   0  0  0  0  0  0  0  0  0  0  0  0
    3.8968    2.0746    0.3542 H   0  0  0  0  0  0  0  0  0  0  0  0
    4.8571    4.2442   -0.0181 H   0  0  0  0  0  0  0  0  0  0  0  0
    9.0371    4.0337   -3.6392 H   0  0  0  0  0  0  0  0  0  0  0  0
    6.0820    6.6071    0.6623 H   0  0  0  0  0  0  0  0  0  0  0  0
    5.4636    7.5669   -0.7032 H   0  0  0  0  0  0  0  0  0  0  0  0
    4.7056    6.0091   -0.2948 H   0  0  0  0  0  0  0  0  0  0  0  0
   12.6145    7.8197   -3.2883 H   0  0  0  0  0  0  0  0  0  0  0  0
   12.0715    8.7183   -5.5126 H   0  0  0  0  0  0  0  0  0  0  0  0
    9.8541    8.3239   -6.5014 H   0  0  0  0  0  0  0  0  0  0  0  0
    7.9409    1.8977   -3.0344 H   0  0  0  0  0  0  0  0  0  0  0  0
    4.3047   -6.5187    0.6130 N   0  3  0  0  0  0  0  0  0  0  0  0
    5.1308   -5.9341    0.7858 H   0  0  0  0  0  0  0  0  0  0  0  0
  1  2  1  0  0  0  0
  1 35  1  0  0  0  0
  1 36  1  0  0  0  0
  1 37  1  0  0  0  0
  2 38  1  0  0  0  0
  2 39  1  0  0  0  0
  2 63  1  0  0  0  0
  3  4  1  0  0  0  0
  3 40  1  0  0  0  0
  3 41  1  0  0  0  0
  3 63  1  0  0  0  0
  4 42  1  0  0  0  0
  4 43  1  0  0  0  0
  4 44  1  0  0  0  0
  5  6  1  0  0  0  0
  5 45  1  0  0  0  0
  5 46  1  0  0  0  0
  5 63  1  0  0  0  0
  6  7  1  0  0  0  0
  6 47  1  0  0  0  0
  6 48  1  0  0  0  0
  7  8  1  0  0  0  0
  8 13  2  0  0  0  0
  8  9  1  0  0  0  0
  9 10  2  0  0  0  0
  9 49  1  0  0  0  0
 10 11  1  0  0  0  0
 10 50  1  0  0  0  0
 11 12  2  0  0  0  0
 11 14  1  0  0  0  0
 12 13  1  0  0  0  0
 12 51  1  0  0  0  0
 13 52  1  0  0  0  0
 14 15  1  0  0  0  0
 14 53  1  0  0  0  0
 15 34  2  0  0  0  0
 15 16  1  0  0  0  0
 16 17  2  0  0  0  0
 16 54  1  0  0  0  0
 17 23  1  0  0  0  0
 17 18  1  0  0  0  0
 18 19  1  0  0  0  0
 18 33  2  0  0  0  0
 19 20  2  0  0  0  0
 19 55  1  0  0  0  0
 20 21  1  0  0  0  0
 20 25  1  0  0  0  0
 21 22  2  0  0  0  0
 21 23  1  0  0  0  0
 23 24  1  0  0  0  0
 24 56  1  0  0  0  0
 24 57  1  0  0  0  0
 24 58  1  0  0  0  0
 25 30  2  0  0  0  0
 25 26  1  0  0  0  0
 26 27  2  0  0  0  0
 26 32  1  0  0  0  0
 27 28  1  0  0  0  0
 27 59  1  0  0  0  0
 28 29  2  0  0  0  0
 28 60  1  0  0  0  0
 29 30  1  0  0  0  0
 29 61  1  0  0  0  0
 30 31  1  0  0  0  0
 33 34  1  0  0  0  0
 33 62  1  0  0  0  0
 63 64  1  0  0  0  0
M  CHG  1  63   1
M  END
$$$$
ZINC03815518
  -OEChem-08230709403D

 47 49  0     0  0  0  0  0  0999 V2000
   -0.0830    9.5937    0.0577 C   0  0  0  0  0  0  0  0  0  0  0  0
   -0.3113    8.0808    0.0514 C   0  0  0  0  0  0  0  0  0  0  0  0
    0.9815    7.3919    0.0351 N   0  0  0  0  0  0  0  0  0  0  0  0
    1.0273    6.0450    0.0271 C   0  0  0  0  0  0  0  0  0  0  0  0
   -0.0042    5.4017    0.0334 O   0  0  0  0  0  0  0  0  0  0  0  0
    2.2167    5.4112    0.0120 N   0  0  0  0  0  0  0  0  0  0  0  0
    2.2638    4.0247    0.0038 C   0  0  0  0  0  0  0  0  0  0  0  0
    3.5175    3.3772   -0.0119 C   0  0  0  0  0  0  0  0  0  0  0  0
    3.5690    1.9924   -0.0207 C   0  0  0  0  0  0  0  0  0  0  0  0
    2.3538    1.2883   -0.0135 C   0  0  0  0  0  0  0  0  0  0  0  0
    2.3093   -0.1165   -0.0211 C   0  0  0  0  0  0  0  0  0  0  0  0
    1.1320   -0.7081   -0.0130 N   0  0  0  0  0  0  0  0  0  0  0  0
    0.0021   -0.0041    0.0020 C   0  0  0  0  0  0  0  0  0  0  0  0
   -0.0158    1.3153    0.0093 N   0  0  0  0  0  0  0  0  0  0  0  0
    1.1301    2.0077    0.0021 C   0  0  0  0  0  0  0  0  0  0  0  0
    1.1372    3.3420    0.0104 N   0  0  0  0  0  0  0  0  0  0  0  0
   -1.2015   -0.6830    0.0099 N   0  0  0  0  0  0  0  0  0  0  0  0
    4.7693    4.1719   -0.0195 C   0  0  0  0  0  0  0  0  0  0  0  0
    4.9367    5.2023   -0.9424 C   0  0  0  0  0  0  0  0  0  0  0  0
    6.1050    5.9469   -0.9427 C   0  0  0  0  0  0  0  0  0  0  0  0
    7.1125    5.6599   -0.0333 C   0  0  0  0  0  0  0  0  0  0  0  0
    6.9516    4.6308    0.8829 C   0  0  0  0  0  0  0  0  0  0  0  0
    5.7832    3.8863    0.8926 C   0  0  0  0  0  0  0  0  0  0  0  0
    7.9410    4.3528    1.7721 O   0  0  0  0  0  0  0  0  0  0  0  0
    9.1183    5.1600    1.7060 C   0  0  0  0  0  0  0  0  0  0  0  0
    6.2665    6.9560   -1.8386 O   0  0  0  0  0  0  0  0  0  0  0  0
    7.4983    7.6787   -1.7867 C   0  0  0  0  0  0  0  0  0  0  0  0
   -1.0449   10.1062    0.0699 H   0  0  0  0  0  0  0  0  0  0  0  0
    0.4879    9.8713    0.9438 H   0  0  0  0  0  0  0  0  0  0  0  0
    0.4707    9.8813   -0.8360 H   0  0  0  0  0  0  0  0  0  0  0  0
   -0.8821    7.8032   -0.8347 H   0  0  0  0  0  0  0  0  0  0  0  0
   -0.8650    7.7932    0.9452 H   0  0  0  0  0  0  0  0  0  0  0  0
    1.8046    7.9052    0.0300 H   0  0  0  0  0  0  0  0  0  0  0  0
    3.0397    5.9245    0.0070 H   0  0  0  0  0  0  0  0  0  0  0  0
    4.5146    1.4707   -0.0331 H   0  0  0  0  0  0  0  0  0  0  0  0
    3.2195   -0.6978   -0.0329 H   0  0  0  0  0  0  0  0  0  0  0  0
   -2.0366   -0.1897    0.0205 H   0  0  0  0  0  0  0  0  0  0  0  0
   -1.2112   -1.6530    0.0048 H   0  0  0  0  0  0  0  0  0  0  0  0
    4.1545    5.4233   -1.6536 H   0  0  0  0  0  0  0  0  0  0  0  0
    8.0242    6.2388   -0.0388 H   0  0  0  0  0  0  0  0  0  0  0  0
    5.6586    3.0852    1.6061 H   0  0  0  0  0  0  0  0  0  0  0  0
    8.8538    6.2032    1.8788 H   0  0  0  0  0  0  0  0  0  0  0  0
    9.8259    4.8336    2.4681 H   0  0  0  0  0  0  0  0  0  0  0  0
    9.5733    5.0590    0.7206 H   0  0  0  0  0  0  0  0  0  0  0  0
    7.4972    8.4540   -2.5528 H   0  0  0  0  0  0  0  0  0  0  0  0
    7.6086    8.1385   -0.8046 H   0  0  0  0  0  0  0  0  0  0  0  0
    8.3285    6.9947   -1.9630 H   0  0  0  0  0  0  0  0  0  0  0  0
  1  2  1  0  0  0  0
  1 28  1  0  0  0  0
  1 29  1  0  0  0  0
  1 30  1  0  0  0  0
  2  3  1  0  0  0  0
  2 31  1  0  0  0  0
  2 32  1  0  0  0  0
  3  4  1  0  0  0  0
  3 33  1  0  0  0  0
  4  5  2  0  0  0  0
  4  6  1  0  0  0  0
  6  7  1  0  0  0  0
  6 34  1  0  0  0  0
  7 16  2  0  0  0  0
  7  8  1  0  0  0  0
  8  9  2  0  0  0  0
  8 18  1  0  0  0  0
  9 10  1  0  0  0  0
  9 35  1  0  0  0  0
 10 15  2  0  0  0  0
 10 11  1  0  0  0  0
 11 12  2  0  0  0  0
 11 36  1  0  0  0  0
 12 13  1  0  0  0  0
 13 14  2  0  0  0  0
 13 17  1  0  0  0  0
 14 15  1  0  0  0  0
 15 16  1  0  0  0  0
 17 37  1  0  0  0  0
 17 38  1  0  0  0  0
 18 23  2  0  0  0  0
 18 19  1  0  0  0  0
 19 20  2  0  0  0  0
 19 39  1  0  0  0  0
 20 21  1  0  0  0  0
 20 26  1  0  0  0  0
 21 22  2  0  0  0  0
 21 40  1  0  0  0  0
 22 23  1  0  0  0  0
 22 24  1  0  0  0  0
 23 41  1  0  0  0  0
 24 25  1  0  0  0  0
 25 42  1  0  0  0  0
 25 43  1  0  0  0  0
 25 44  1  0  0  0  0
 26 27  1  0  0  0  0
 27 45  1  0  0  0  0
 27 46  1  0  0  0  0
 27 47  1  0  0  0  0
M  END
$$$$
ZINC03815520
  -OEChem-08230709403D

 42 45  0     0  0  0  0  0  0999 V2000
    2.0709    8.2772    0.4276 C   0  0  0  0  0  0  0  0  0  0  0  0
    3.3654    7.5914    0.4148 N   0  0  0  0  0  0  0  0  0  0  0  0
    3.4085    6.2243    0.3059 C   0  0  0  0  0  0  0  0  0  0  0  0
    4.6476    5.5480    0.2920 C   0  0  0  0  0  0  0  0  0  0  0  0
    5.8559    6.2749    0.3904 C   0  0  0  0  0  0  0  0  0  0  0  0
    5.8030    7.6389    0.4978 C   0  0  0  0  0  0  0  0  0  0  0  0
    4.5011    8.3093    0.5096 C   0  0  0  0  0  0  0  0  0  0  0  0
    4.4450    9.5224    0.6053 O   0  0  0  0  0  0  0  0  0  0  0  0
    7.0517    8.4294    0.6022 C   0  0  0  0  0  0  0  0  0  0  0  0
    7.6001    8.7111    1.8540 C   0  0  0  0  0  0  0  0  0  0  0  0
    8.7666    9.4453    1.9441 C   0  0  0  0  0  0  0  0  0  0  0  0
    9.3860    9.9087    0.7974 C   0  0  0  0  0  0  0  0  0  0  0  0
    8.8450    9.6370   -0.4464 C   0  0  0  0  0  0  0  0  0  0  0  0
    7.6814    8.9002   -0.5507 C   0  0  0  0  0  0  0  0  0  0  0  0
    7.0034    8.5613   -2.1124 Cl  0  0  0  0  0  0  0  0  0  0  0  0
    6.8210    8.1355    3.2946 Cl  0  0  0  0  0  0  0  0  0  0  0  0
    4.6477    4.1496    0.1787 C   0  0  0  0  0  0  0  0  0  0  0  0
    3.4895    3.5229    0.0897 N   0  0  0  0  0  0  0  0  0  0  0  0
    2.3421    4.1926    0.1060 C   0  0  0  0  0  0  0  0  0  0  0  0
    2.2918    5.5122    0.2062 N   0  0  0  0  0  0  0  0  0  0  0  0
    1.1585    3.4870    0.0093 N   0  0  0  0  0  0  0  0  0  0  0  0
    1.1757    2.0869    0.0133 C   0  0  0  0  0  0  0  0  0  0  0  0
    2.1234    1.4060    0.7660 C   0  0  0  0  0  0  0  0  0  0  0  0
    2.1394    0.0252    0.7698 C   0  0  0  0  0  0  0  0  0  0  0  0
    1.2089   -0.6817    0.0223 C   0  0  0  0  0  0  0  0  0  0  0  0
    0.2619   -0.0022   -0.7299 C   0  0  0  0  0  0  0  0  0  0  0  0
    0.2448    1.3786   -0.7351 C   0  0  0  0  0  0  0  0  0  0  0  0
    1.2247   -2.0414    0.0273 O   0  0  0  0  0  0  0  0  0  0  0  0
    1.7162    8.3647    1.4546 H   0  0  0  0  0  0  0  0  0  0  0  0
    2.1823    9.2718   -0.0042 H   0  0  0  0  0  0  0  0  0  0  0  0
    1.3510    7.7055   -0.1580 H   0  0  0  0  0  0  0  0  0  0  0  0
    6.8065    5.7624    0.3799 H   0  0  0  0  0  0  0  0  0  0  0  0
    9.1939    9.6612    2.9121 H   0  0  0  0  0  0  0  0  0  0  0  0
   10.2958   10.4856    0.8735 H   0  0  0  0  0  0  0  0  0  0  0  0
    9.3333   10.0020   -1.3378 H   0  0  0  0  0  0  0  0  0  0  0  0
    5.5758    3.5975    0.1643 H   0  0  0  0  0  0  0  0  0  0  0  0
    0.3154    3.9615   -0.0615 H   0  0  0  0  0  0  0  0  0  0  0  0
    2.8449    1.9561    1.3519 H   0  0  0  0  0  0  0  0  0  0  0  0
    2.8763   -0.5046    1.3552 H   0  0  0  0  0  0  0  0  0  0  0  0
   -0.4620   -0.5533   -1.3119 H   0  0  0  0  0  0  0  0  0  0  0  0
   -0.4923    1.9074   -1.3211 H   0  0  0  0  0  0  0  0  0  0  0  0
    0.6779   -2.4386    0.7189 H   0  0  0  0  0  0  0  0  0  0  0  0
  1  2  1  0  0  0  0
  1 29  1  0  0  0  0
  1 30  1  0  0  0  0
  1 31  1  0  0  0  0
  2  7  1  0  0  0  0
  2  3  1  0  0  0  0
  3 20  2  0  0  0  0
  3  4  1  0  0  0  0
  4  5  1  0  0  0  0
  4 17  2  0  0  0  0
  5  6  2  0  0  0  0
  5 32  1  0  0  0  0
  6  7  1  0  0  0  0
  6  9  1  0  0  0  0
  7  8  2  0  0  0  0
  9 14  2  0  0  0  0
  9 10  1  0  0  0  0
 10 11  2  0  0  0  0
 10 16  1  0  0  0  0
 11 12  1  0  0  0  0
 11 33  1  0  0  0  0
 12 13  2  0  0  0  0
 12 34  1  0  0  0  0
 13 14  1  0  0  0  0
 13 35  1  0  0  0  0
 14 15  1  0  0  0  0
 17 18  1  0  0  0  0
 17 36  1  0  0  0  0
 18 19  2  0  0  0  0
 19 20  1  0  0  0  0
 19 21  1  0  0  0  0
 21 22  1  0  0  0  0
 21 37  1  0  0  0  0
 22 27  2  0  0  0  0
 22 23  1  0  0  0  0
 23 24  2  0  0  0  0
 23 38  1  0  0  0  0
 24 25  1  0  0  0  0
 24 39  1  0  0  0  0
 25 26  2  0  0  0  0
 25 28  1  0  0  0  0
 26 27  1  0  0  0  0
 26 40  1  0  0  0  0
 27 41  1  0  0  0  0
 28 42  1  0  0  0  0
M  END
$$$$
ZINC03815521
  -OEChem-08230709403D

 57 59  0     0  0  0  0  0  0999 V2000
   -7.0903   -2.4413   -2.2061 C   0  0  0  0  0  0  0  0  0  0  0  0
   -8.1042   -2.0072   -1.1457 C   0  0  0  0  0  0  0  0  0  0  0  0
   -7.6932   -3.9955    0.1735 C   0  0  0  0  0  0  0  0  0  0  0  0
   -9.1352   -4.5063    0.1548 C   0  0  0  0  0  0  0  0  0  0  0  0
   -6.3796   -1.9973    0.5537 C   0  0  0  0  0  0  0  0  0  0  0  0
   -6.4834   -0.4872    0.7765 C   0  0  0  0  0  0  0  0  0  0  0  0
   -5.1146    0.0640    1.1806 C   0  0  0  0  0  0  0  0  0  0  0  0
   -5.2139    1.5100    1.3938 N   0  0  0  0  0  0  0  0  0  0  0  0
   -4.0921    2.2344    1.7695 C   0  0  0  0  0  0  0  0  0  0  0  0
   -2.8823    1.5756    1.9401 C   0  0  0  0  0  0  0  0  0  0  0  0
   -1.7640    2.3116    2.3119 C   0  0  0  0  0  0  0  0  0  0  0  0
   -1.9122    3.7023    2.5099 C   0  0  0  0  0  0  0  0  0  0  0  0
   -0.7965    4.4837    2.8935 C   0  0  0  0  0  0  0  0  0  0  0  0
    0.4146    3.8725    3.0717 C   0  0  0  0  0  0  0  0  0  0  0  0
    0.5329    2.4276    2.8630 C   0  0  0  0  0  0  0  0  0  0  0  0
    1.6085    1.8779    3.0201 O   0  0  0  0  0  0  0  0  0  0  0  0
   -0.5437    1.7039    2.4983 N   0  0  0  0  0  0  0  0  0  0  0  0
   -0.4124    0.2593    2.2926 C   0  0  0  0  0  0  0  0  0  0  0  0
    1.5989    4.6672    3.4727 C   0  0  0  0  0  0  0  0  0  0  0  0
    2.4284    5.2279    2.5006 C   0  0  0  0  0  0  0  0  0  0  0  0
    3.5279    5.9722    2.8812 C   0  0  0  0  0  0  0  0  0  0  0  0
    3.8135    6.1535    4.2225 C   0  0  0  0  0  0  0  0  0  0  0  0
    2.9985    5.5956    5.1910 C   0  0  0  0  0  0  0  0  0  0  0  0
    1.8930    4.8536    4.8240 C   0  0  0  0  0  0  0  0  0  0  0  0
    0.8718    4.1538    6.0410 Cl  0  0  0  0  0  0  0  0  0  0  0  0
    2.0758    4.9955    0.8168 Cl  0  0  0  0  0  0  0  0  0  0  0  0
   -3.1700    4.2858    2.3165 C   0  0  0  0  0  0  0  0  0  0  0  0
   -7.3822   -2.0365   -3.1752 H   0  0  0  0  0  0  0  0  0  0  0  0
   -6.1021   -2.0669   -1.9387 H   0  0  0  0  0  0  0  0  0  0  0  0
   -7.0642   -3.5297   -2.2599 H   0  0  0  0  0  0  0  0  0  0  0  0
   -9.0880   -2.4012   -1.4009 H   0  0  0  0  0  0  0  0  0  0  0  0
   -8.1473   -0.9187   -1.1082 H   0  0  0  0  0  0  0  0  0  0  0  0
   -7.1660   -4.3632   -0.7068 H   0  0  0  0  0  0  0  0  0  0  0  0
   -7.1924   -4.3538    1.0729 H   0  0  0  0  0  0  0  0  0  0  0  0
   -9.6616   -4.1408    1.0365 H   0  0  0  0  0  0  0  0  0  0  0  0
   -9.6368   -4.1458   -0.7433 H   0  0  0  0  0  0  0  0  0  0  0  0
   -9.1346   -5.5963    0.1578 H   0  0  0  0  0  0  0  0  0  0  0  0
   -5.6585   -2.1991   -0.2383 H   0  0  0  0  0  0  0  0  0  0  0  0
   -6.0517   -2.4787    1.4750 H   0  0  0  0  0  0  0  0  0  0  0  0
   -7.2046   -0.2854    1.5685 H   0  0  0  0  0  0  0  0  0  0  0  0
   -6.8114   -0.0057   -0.1448 H   0  0  0  0  0  0  0  0  0  0  0  0
   -4.3934   -0.1377    0.3886 H   0  0  0  0  0  0  0  0  0  0  0  0
   -4.7866   -0.4174    2.1019 H   0  0  0  0  0  0  0  0  0  0  0  0
   -6.0641    1.9609    1.2723 H   0  0  0  0  0  0  0  0  0  0  0  0
   -2.8106    0.5095    1.7826 H   0  0  0  0  0  0  0  0  0  0  0  0
   -0.8996    5.5483    3.0433 H   0  0  0  0  0  0  0  0  0  0  0  0
    0.6183   -0.0421    2.4795 H   0  0  0  0  0  0  0  0  0  0  0  0
   -1.0752   -0.2672    2.9794 H   0  0  0  0  0  0  0  0  0  0  0  0
   -0.6826    0.0124    1.2659 H   0  0  0  0  0  0  0  0  0  0  0  0
    4.1684    6.4101    2.1300 H   0  0  0  0  0  0  0  0  0  0  0  0
    4.6768    6.7328    4.5148 H   0  0  0  0  0  0  0  0  0  0  0  0
    3.2270    5.7409    6.2366 H   0  0  0  0  0  0  0  0  0  0  0  0
   -3.2977    5.3485    2.4607 H   0  0  0  0  0  0  0  0  0  0  0  0
   -7.7131   -2.5176    0.1851 N   0  3  0  0  0  0  0  0  0  0  0  0
   -8.3991   -2.1987    0.8794 H   0  0  0  0  0  0  0  0  0  0  0  0
   -4.2703    3.5816    1.9485 N   0  3  0  0  0  0  0  0  0  0  0  0
   -5.1830    4.0318    1.8122 H   0  0  0  0  0  0  0  0  0  0  0  0
  1  2  1  0  0  0  0
  1 28  1  0  0  0  0
  1 29  1  0  0  0  0
  1 30  1  0  0  0  0
  2 31  1  0  0  0  0
  2 32  1  0  0  0  0
  2 54  1  0  0  0  0
  3  4  1  0  0  0  0
  3 33  1  0  0  0  0
  3 34  1  0  0  0  0
  3 54  1  0  0  0  0
  4 35  1  0  0  0  0
  4 36  1  0  0  0  0
  4 37  1  0  0  0  0
  5  6  1  0  0  0  0
  5 38  1  0  0  0  0
  5 39  1  0  0  0  0
  5 54  1  0  0  0  0
  6  7  1  0  0  0  0
  6 40  1  0  0  0  0
  6 41  1  0  0  0  0
  7  8  1  0  0  0  0
  7 42  1  0  0  0  0
  7 43  1  0  0  0  0
  8  9  1  0  0  0  0
  8 44  1  0  0  0  0
  9 10  2  0  0  0  0
  9 56  1  0  0  0  0
 10 11  1  0  0  0  0
 10 45  1  0  0  0  0
 11 17  1  0  0  0  0
 11 12  2  0  0  0  0
 12 13  1  0  0  0  0
 12 27  1  0  0  0  0
 13 14  2  0  0  0  0
 13 46  1  0  0  0  0
 14 15  1  0  0  0  0
 14 19  1  0  0  0  0
 15 16  2  0  0  0  0
 15 17  1  0  0  0  0
 17 18  1  0  0  0  0
 18 47  1  0  0  0  0
 18 48  1  0  0  0  0
 18 49  1  0  0  0  0
 19 24  2  0  0  0  0
 19 20  1  0  0  0  0
 20 21  2  0  0  0  0
 20 26  1  0  0  0  0
 21 22  1  0  0  0  0
 21 50  1  0  0  0  0
 22 23  2  0  0  0  0
 22 51  1  0  0  0  0
 23 24  1  0  0  0  0
 23 52  1  0  0  0  0
 24 25  1  0  0  0  0
 27 53  1  0  0  0  0
 27 56  2  0  0  0  0
 54 55  1  0  0  0  0
 56 57  1  0  0  0  0
M  CHG  2  54   1  56   1
M  END
$$$$
ZINC03815522
  -OEChem-08230709403D

 41 43  0     0  0  0  0  0  0999 V2000
   -2.3088    1.8793   -7.1571 C   0  0  0  0  0  0  0  0  0  0  0  0
   -3.1656    1.3580   -6.0017 C   0  0  0  0  0  0  0  0  0  0  0  0
   -2.5353    1.7126   -4.7276 N   0  0  0  0  0  0  0  0  0  0  0  0
   -3.1162    1.3540   -3.5656 C   0  0  0  0  0  0  0  0  0  0  0  0
   -4.1632    0.7362   -3.5746 O   0  0  0  0  0  0  0  0  0  0  0  0
   -2.5364    1.6802   -2.3935 N   0  0  0  0  0  0  0  0  0  0  0  0
   -3.1348    1.3107   -1.1963 C   0  0  0  0  0  0  0  0  0  0  0  0
   -2.5145    1.6603    0.0230 C   0  0  0  0  0  0  0  0  0  0  0  0
   -3.1086    1.2995    1.2207 C   0  0  0  0  0  0  0  0  0  0  0  0
   -4.3190    0.5856    1.1688 C   0  0  0  0  0  0  0  0  0  0  0  0
   -4.9882    0.1814    2.3329 C   0  0  0  0  0  0  0  0  0  0  0  0
   -6.6732   -0.8021    1.0808 C   0  0  0  0  0  0  0  0  0  0  0  0
   -6.0896   -0.4475   -0.1191 C   0  0  0  0  0  0  0  0  0  0  0  0
   -4.8801    0.2651   -0.0963 C   0  0  0  0  0  0  0  0  0  0  0  0
   -4.2654    0.6369   -1.2223 N   0  0  0  0  0  0  0  0  0  0  0  0
   -7.8706   -1.5082    1.0703 N   0  0  0  0  0  0  0  0  0  0  0  0
   -1.2380    2.4142    0.0210 C   0  0  0  0  0  0  0  0  0  0  0  0
   -1.2484    3.8091    0.0339 C   0  0  0  0  0  0  0  0  0  0  0  0
   -0.0556    4.5057    0.0263 C   0  0  0  0  0  0  0  0  0  0  0  0
    1.1473    3.8231    0.0116 C   0  0  0  0  0  0  0  0  0  0  0  0
    1.1644    2.4401    0.0040 C   0  0  0  0  0  0  0  0  0  0  0  0
   -0.0215    1.7317    0.0116 C   0  0  0  0  0  0  0  0  0  0  0  0
    0.0021   -0.0041    0.0020 Cl  0  0  0  0  0  0  0  0  0  0  0  0
   -2.7571    4.6676    0.0524 Cl  0  0  0  0  0  0  0  0  0  0  0  0
   -2.2215    2.9634   -7.0843 H   0  0  0  0  0  0  0  0  0  0  0  0
   -1.3168    1.4306   -7.1051 H   0  0  0  0  0  0  0  0  0  0  0  0
   -2.7778    1.6155   -8.1050 H   0  0  0  0  0  0  0  0  0  0  0  0
   -3.2530    0.2739   -6.0745 H   0  0  0  0  0  0  0  0  0  0  0  0
   -4.1576    1.8067   -6.0536 H   0  0  0  0  0  0  0  0  0  0  0  0
   -1.6999    2.2055   -4.7204 H   0  0  0  0  0  0  0  0  0  0  0  0
   -1.7010    2.1732   -2.3862 H   0  0  0  0  0  0  0  0  0  0  0  0
   -2.6558    1.5584    2.1663 H   0  0  0  0  0  0  0  0  0  0  0  0
   -4.5743    0.4181    3.3019 H   0  0  0  0  0  0  0  0  0  0  0  0
   -6.5542   -0.7135   -1.0571 H   0  0  0  0  0  0  0  0  0  0  0  0
   -8.2909   -1.7629    1.9066 H   0  0  0  0  0  0  0  0  0  0  0  0
   -8.2859   -1.7463    0.2266 H   0  0  0  0  0  0  0  0  0  0  0  0
   -0.0623    5.5857    0.0321 H   0  0  0  0  0  0  0  0  0  0  0  0
    2.0771    4.3724    0.0057 H   0  0  0  0  0  0  0  0  0  0  0  0
    2.1069    1.9129   -0.0074 H   0  0  0  0  0  0  0  0  0  0  0  0
   -6.1560   -0.5072    2.3193 N   0  3  0  0  0  0  0  0  0  0  0  0
   -6.6275   -0.7923    3.1857 H   0  0  0  0  0  0  0  0  0  0  0  0
  1  2  1  0  0  0  0
  1 25  1  0  0  0  0
  1 26  1  0  0  0  0
  1 27  1  0  0  0  0
  2  3  1  0  0  0  0
  2 28  1  0  0  0  0
  2 29  1  0  0  0  0
  3  4  1  0  0  0  0
  3 30  1  0  0  0  0
  4  5  2  0  0  0  0
  4  6  1  0  0  0  0
  6  7  1  0  0  0  0
  6 31  1  0  0  0  0
  7 15  2  0  0  0  0
  7  8  1  0  0  0  0
  8  9  2  0  0  0  0
  8 17  1  0  0  0  0
  9 10  1  0  0  0  0
  9 32  1  0  0  0  0
 10 14  2  0  0  0  0
 10 11  1  0  0  0  0
 11 33  1  0  0  0  0
 11 40  2  0  0  0  0
 12 13  2  0  0  0  0
 12 16  1  0  0  0  0
 12 40  1  0  0  0  0
 13 14  1  0  0  0  0
 13 34  1  0  0  0  0
 14 15  1  0  0  0  0
 16 35  1  0  0  0  0
 16 36  1  0  0  0  0
 17 22  2  0  0  0  0
 17 18  1  0  0  0  0
 18 19  2  0  0  0  0
 18 24  1  0  0  0  0
 19 20  1  0  0  0  0
 19 37  1  0  0  0  0
 20 21  2  0  0  0  0
 20 38  1  0  0  0  0
 21 22  1  0  0  0  0
 21 39  1  0  0  0  0
 22 23  1  0  0  0  0
 40 41  1  0  0  0  0
M  CHG  1  40   1
M  END
$$$$
ZINC03815525
  -OEChem-08230709403D

 64 67  0     0  0  0  0  0  0999 V2000
    0.0021   -0.0041    0.0020 C   0  0  0  0  0  0  0  0  0  0  0  0
   -0.0178    1.4608    0.0101 N   0  0  0  0  0  0  0  0  0  0  0  0
   -1.2216    2.1269    0.0194 C   0  0  0  0  0  0  0  0  0  0  0  0
   -2.4255    1.4324    0.0320 C   0  0  0  0  0  0  0  0  0  0  0  0
   -3.6131    2.1500    0.0463 C   0  0  0  0  0  0  0  0  0  0  0  0
   -2.5054    4.1825    0.0466 C   0  0  0  0  0  0  0  0  0  0  0  0
   -1.2621    3.5384    0.0322 C   0  0  0  0  0  0  0  0  0  0  0  0
   -0.0566    4.2794    0.0247 C   0  0  0  0  0  0  0  0  0  0  0  0
    1.1365    3.6096    0.0101 C   0  0  0  0  0  0  0  0  0  0  0  0
    1.1430    2.1450    0.0027 C   0  0  0  0  0  0  0  0  0  0  0  0
    2.2020    1.5430   -0.0099 O   0  0  0  0  0  0  0  0  0  0  0  0
    2.4133    4.3610    0.0015 C   0  0  0  0  0  0  0  0  0  0  0  0
    3.0084    4.7175   -1.2093 C   0  0  0  0  0  0  0  0  0  0  0  0
    4.1956    5.4234   -1.2103 C   0  0  0  0  0  0  0  0  0  0  0  0
    4.8007    5.7666   -0.0147 C   0  0  0  0  0  0  0  0  0  0  0  0
    4.2192    5.4109    1.1890 C   0  0  0  0  0  0  0  0  0  0  0  0
    3.0290    4.7103    1.2040 C   0  0  0  0  0  0  0  0  0  0  0  0
    2.3008    4.2649    2.7157 Cl  0  0  0  0  0  0  0  0  0  0  0  0
    2.2543    4.2815   -2.7109 Cl  0  0  0  0  0  0  0  0  0  0  0  0
   -4.8205    1.4669    0.0541 N   0  0  0  0  0  0  0  0  0  0  0  0
   -4.8333    0.0019    0.0468 C   0  0  0  0  0  0  0  0  0  0  0  0
   -6.2801   -0.4955    0.0578 C   0  0  0  0  0  0  0  0  0  0  0  0
   -6.2935   -2.0254    0.0502 C   0  0  0  0  0  0  0  0  0  0  0  0
   -7.7403   -2.5229    0.0612 C   0  0  0  0  0  0  0  0  0  0  0  0
   -7.2158   -4.5169   -1.2092 C   0  0  0  0  0  0  0  0  0  0  0  0
   -7.1723   -6.0455   -1.1456 C   0  0  0  0  0  0  0  0  0  0  0  0
   -9.0630   -6.0365    0.3657 C   0  0  0  0  0  0  0  0  0  0  0  0
   -9.1065   -4.5079    0.3022 C   0  0  0  0  0  0  0  0  0  0  0  0
   -8.5385   -8.0305   -0.9047 C   0  0  0  0  0  0  0  0  0  0  0  0
    1.0345   -0.3534   -0.0097 H   0  0  0  0  0  0  0  0  0  0  0  0
   -0.4983   -0.3791    0.8948 H   0  0  0  0  0  0  0  0  0  0  0  0
   -0.5153   -0.3696   -0.8850 H   0  0  0  0  0  0  0  0  0  0  0  0
   -2.4366    0.3525    0.0263 H   0  0  0  0  0  0  0  0  0  0  0  0
   -2.5521    5.2614    0.0521 H   0  0  0  0  0  0  0  0  0  0  0  0
   -0.0780    5.3592    0.0300 H   0  0  0  0  0  0  0  0  0  0  0  0
    4.6545    5.7045   -2.1467 H   0  0  0  0  0  0  0  0  0  0  0  0
    5.7314    6.3144   -0.0210 H   0  0  0  0  0  0  0  0  0  0  0  0
    4.6967    5.6818    2.1190 H   0  0  0  0  0  0  0  0  0  0  0  0
   -5.6562    1.9591    0.0644 H   0  0  0  0  0  0  0  0  0  0  0  0
   -4.3310   -0.3613   -0.8498 H   0  0  0  0  0  0  0  0  0  0  0  0
   -4.3143   -0.3703    0.9301 H   0  0  0  0  0  0  0  0  0  0  0  0
   -6.7824   -0.1322    0.9544 H   0  0  0  0  0  0  0  0  0  0  0  0
   -6.7990   -0.1232   -0.8255 H   0  0  0  0  0  0  0  0  0  0  0  0
   -5.7912   -2.3887   -0.8464 H   0  0  0  0  0  0  0  0  0  0  0  0
   -5.7745   -2.3977    0.9335 H   0  0  0  0  0  0  0  0  0  0  0  0
   -8.2426   -2.1596    0.9578 H   0  0  0  0  0  0  0  0  0  0  0  0
   -8.2592   -2.1506   -0.8221 H   0  0  0  0  0  0  0  0  0  0  0  0
   -7.8563   -4.2053   -2.0342 H   0  0  0  0  0  0  0  0  0  0  0  0
   -6.2085   -4.1305   -1.3644 H   0  0  0  0  0  0  0  0  0  0  0  0
   -6.5104   -6.3572   -0.3377 H   0  0  0  0  0  0  0  0  0  0  0  0
   -6.8013   -6.4383   -2.0923 H   0  0  0  0  0  0  0  0  0  0  0  0
   -8.4225   -6.3481    1.1908 H   0  0  0  0  0  0  0  0  0  0  0  0
  -10.0703   -6.4228    0.5213 H   0  0  0  0  0  0  0  0  0  0  0  0
   -9.4775   -4.1150    1.2488 H   0  0  0  0  0  0  0  0  0  0  0  0
   -9.7684   -4.1962   -0.5057 H   0  0  0  0  0  0  0  0  0  0  0  0
   -9.5622   -8.3855   -0.7859 H   0  0  0  0  0  0  0  0  0  0  0  0
   -8.1358   -8.3926   -1.8506 H   0  0  0  0  0  0  0  0  0  0  0  0
   -7.9270   -8.4033   -0.0829 H   0  0  0  0  0  0  0  0  0  0  0  0
   -3.6891    3.5189    0.0539 N   0  3  0  0  0  0  0  0  0  0  0  0
   -4.5890    4.0130    0.0644 H   0  0  0  0  0  0  0  0  0  0  0  0
   -7.7368   -4.0013    0.0745 N   0  3  0  0  0  0  0  0  0  0  0  0
   -7.1298   -4.3267    0.8360 H   0  0  0  0  0  0  0  0  0  0  0  0
   -8.5422   -6.5520   -0.9178 N   0  3  0  0  0  0  0  0  0  0  0  0
   -9.1493   -6.2267   -1.6792 H   0  0  0  0  0  0  0  0  0  0  0  0
  1  2  1  0  0  0  0
  1 30  1  0  0  0  0
  1 31  1  0  0  0  0
  1 32  1  0  0  0  0
  2 10  1  0  0  0  0
  2  3  1  0  0  0  0
  3  7  2  0  0  0  0
  3  4  1  0  0  0  0
  4  5  2  0  0  0  0
  4 33  1  0  0  0  0
  5 20  1  0  0  0  0
  5 59  1  0  0  0  0
  6  7  1  0  0  0  0
  6 34  1  0  0  0  0
  6 59  2  0  0  0  0
  7  8  1  0  0  0  0
  8  9  2  0  0  0  0
  8 35  1  0  0  0  0
  9 10  1  0  0  0  0
  9 12  1  0  0  0  0
 10 11  2  0  0  0  0
 12 17  2  0  0  0  0
 12 13  1  0  0  0  0
 13 14  2  0  0  0  0
 13 19  1  0  0  0  0
 14 15  1  0  0  0  0
 14 36  1  0  0  0  0
 15 16  2  0  0  0  0
 15 37  1  0  0  0  0
 16 17  1  0  0  0  0
 16 38  1  0  0  0  0
 17 18  1  0  0  0  0
 20 21  1  0  0  0  0
 20 39  1  0  0  0  0
 21 22  1  0  0  0  0
 21 40  1  0  0  0  0
 21 41  1  0  0  0  0
 22 23  1  0  0  0  0
 22 42  1  0  0  0  0
 22 43  1  0  0  0  0
 23 24  1  0  0  0  0
 23 44  1  0  0  0  0
 23 45  1  0  0  0  0
 24 46  1  0  0  0  0
 24 47  1  0  0  0  0
 24 61  1  0  0  0  0
 25 26  1  0  0  0  0
 25 48  1  0  0  0  0
 25 49  1  0  0  0  0
 25 61  1  0  0  0  0
 26 50  1  0  0  0  0
 26 51  1  0  0  0  0
 26 63  1  0  0  0  0
 27 28  1  0  0  0  0
 27 52  1  0  0  0  0
 27 53  1  0  0  0  0
 27 63  1  0  0  0  0
 28 54  1  0  0  0  0
 28 55  1  0  0  0  0
 28 61  1  0  0  0  0
 29 56  1  0  0  0  0
 29 57  1  0  0  0  0
 29 58  1  0  0  0  0
 29 63  1  0  0  0  0
 59 60  1  0  0  0  0
 61 62  1  0  0  0  0
 63 64  1  0  0  0  0
M  CHG  3  59   1  61   1  63   1
M  END
$$$$
ZINC03815526
  -OEChem-08230709403D

 45 47  0     0  0  0  0  0  0999 V2000
   -1.0888    7.6771    1.3060 C   0  0  0  0  0  0  0  0  0  0  0  0
   -0.3116    8.0808    0.0514 C   0  0  0  0  0  0  0  0  0  0  0  0
   -0.0834    9.5937    0.0577 C   0  0  0  0  0  0  0  0  0  0  0  0
   -1.1129    7.6911   -1.1924 C   0  0  0  0  0  0  0  0  0  0  0  0
    0.9813    7.3920    0.0351 N   0  0  0  0  0  0  0  0  0  0  0  0
    1.0271    6.0451    0.0271 C   0  0  0  0  0  0  0  0  0  0  0  0
   -0.0044    5.4017    0.0334 O   0  0  0  0  0  0  0  0  0  0  0  0
    2.2165    5.4113    0.0120 N   0  0  0  0  0  0  0  0  0  0  0  0
    2.2637    4.0248    0.0038 C   0  0  0  0  0  0  0  0  0  0  0  0
    3.5175    3.3772   -0.0119 C   0  0  0  0  0  0  0  0  0  0  0  0
    3.5691    1.9925   -0.0207 C   0  0  0  0  0  0  0  0  0  0  0  0
    2.3538    1.2883   -0.0135 C   0  0  0  0  0  0  0  0  0  0  0  0
    2.3093   -0.1164   -0.0211 C   0  0  0  0  0  0  0  0  0  0  0  0
    1.1319   -0.7080   -0.0130 N   0  0  0  0  0  0  0  0  0  0  0  0
    0.0021   -0.0041    0.0020 C   0  0  0  0  0  0  0  0  0  0  0  0
   -0.0158    1.3152    0.0093 N   0  0  0  0  0  0  0  0  0  0  0  0
    1.1301    2.0077    0.0021 C   0  0  0  0  0  0  0  0  0  0  0  0
    1.1371    3.3420    0.0104 N   0  0  0  0  0  0  0  0  0  0  0  0
   -1.2016   -0.6831    0.0099 N   0  0  0  0  0  0  0  0  0  0  0  0
    4.7691    4.1719   -0.0195 C   0  0  0  0  0  0  0  0  0  0  0  0
    5.3486    4.5545   -1.2295 C   0  0  0  0  0  0  0  0  0  0  0  0
    6.5146    5.2946   -1.2298 C   0  0  0  0  0  0  0  0  0  0  0  0
    7.1078    5.6565   -0.0335 C   0  0  0  0  0  0  0  0  0  0  0  0
    6.5381    5.2802    1.1692 C   0  0  0  0  0  0  0  0  0  0  0  0
    5.3689    4.5448    1.1828 C   0  0  0  0  0  0  0  0  0  0  0  0
    4.5876    4.0380    2.8286 Br  0  0  0  0  0  0  0  0  0  0  0  0
    4.6059    4.1008   -2.7316 Cl  0  0  0  0  0  0  0  0  0  0  0  0
   -0.5179    7.9547    2.1921 H   0  0  0  0  0  0  0  0  0  0  0  0
   -2.0507    8.1896    1.3181 H   0  0  0  0  0  0  0  0  0  0  0  0
   -1.2514    6.5993    1.3015 H   0  0  0  0  0  0  0  0  0  0  0  0
    0.4703    9.8814   -0.8360 H   0  0  0  0  0  0  0  0  0  0  0  0
   -1.0453   10.1062    0.0699 H   0  0  0  0  0  0  0  0  0  0  0  0
    0.4875    9.8714    0.9438 H   0  0  0  0  0  0  0  0  0  0  0  0
   -1.2755    6.6133   -1.1968 H   0  0  0  0  0  0  0  0  0  0  0  0
   -2.0748    8.2036   -1.1802 H   0  0  0  0  0  0  0  0  0  0  0  0
   -0.5592    7.9788   -2.0861 H   0  0  0  0  0  0  0  0  0  0  0  0
    1.8043    7.9053    0.0300 H   0  0  0  0  0  0  0  0  0  0  0  0
    3.0395    5.9247    0.0070 H   0  0  0  0  0  0  0  0  0  0  0  0
    4.5146    1.4707   -0.0331 H   0  0  0  0  0  0  0  0  0  0  0  0
    3.2195   -0.6978   -0.0336 H   0  0  0  0  0  0  0  0  0  0  0  0
   -2.0367   -0.1897    0.0205 H   0  0  0  0  0  0  0  0  0  0  0  0
   -1.2113   -1.6530    0.0048 H   0  0  0  0  0  0  0  0  0  0  0  0
    6.9645    5.5912   -2.1658 H   0  0  0  0  0  0  0  0  0  0  0  0
    8.0193    6.2356   -0.0389 H   0  0  0  0  0  0  0  0  0  0  0  0
    7.0059    5.5658    2.0997 H   0  0  0  0  0  0  0  0  0  0  0  0
  1  2  1  0  0  0  0
  1 28  1  0  0  0  0
  1 29  1  0  0  0  0
  1 30  1  0  0  0  0
  2  3  1  0  0  0  0
  2  4  1  0  0  0  0
  2  5  1  0  0  0  0
  3 31  1  0  0  0  0
  3 32  1  0  0  0  0
  3 33  1  0  0  0  0
  4 34  1  0  0  0  0
  4 35  1  0  0  0  0
  4 36  1  0  0  0  0
  5  6  1  0  0  0  0
  5 37  1  0  0  0  0
  6  7  2  0  0  0  0
  6  8  1  0  0  0  0
  8  9  1  0  0  0  0
  8 38  1  0  0  0  0
  9 18  2  0  0  0  0
  9 10  1  0  0  0  0
 10 11  2  0  0  0  0
 10 20  1  0  0  0  0
 11 12  1  0  0  0  0
 11 39  1  0  0  0  0
 12 17  2  0  0  0  0
 12 13  1  0  0  0  0
 13 14  2  0  0  0  0
 13 40  1  0  0  0  0
 14 15  1  0  0  0  0
 15 16  2  0  0  0  0
 15 19  1  0  0  0  0
 16 17  1  0  0  0  0
 17 18  1  0  0  0  0
 19 41  1  0  0  0  0
 19 42  1  0  0  0  0
 20 25  2  0  0  0  0
 20 21  1  0  0  0  0
 21 22  2  0  0  0  0
 21 27  1  0  0  0  0
 22 23  1  0  0  0  0
 22 43  1  0  0  0  0
 23 24  2  0  0  0  0
 23 44  1  0  0  0  0
 24 25  1  0  0  0  0
 24 45  1  0  0  0  0
 25 26  1  0  0  0  0
M  END
$$$$
ZINC03815527
  -OEChem-08230709403D

 49 52  0     0  0  0  0  0  0999 V2000
   -1.2722    2.1495   -1.3931 C   0  0  0  0  0  0  0  0  0  0  0  0
   -0.1060    1.7142   -1.9896 C   0  0  0  0  0  0  0  0  0  0  0  0
    1.0975    2.3556   -1.7191 C   0  0  0  0  0  0  0  0  0  0  0  0
    1.1067    3.4408   -0.8316 C   0  0  0  0  0  0  0  0  0  0  0  0
   -0.0730    3.8679   -0.2314 C   0  0  0  0  0  0  0  0  0  0  0  0
   -1.2582    3.2182   -0.5127 C   0  0  0  0  0  0  0  0  0  0  0  0
   -2.7564    3.7546    0.2438 S   0  0  0  0  0  0  0  0  0  0  0  0
   -3.6365    2.6389    0.2378 O   0  0  0  0  0  0  0  0  0  0  0  0
   -2.3890    4.4286    1.4396 O   0  0  0  0  0  0  0  0  0  0  0  0
   -3.4285    4.8928   -0.7537 N   0  0  0  0  0  0  0  0  0  0  0  0
    2.5106    3.9014   -0.7512 C   0  0  0  0  0  0  0  0  0  0  0  0
    3.0102    4.9474    0.0009 C   0  0  0  0  0  0  0  0  0  0  0  0
    4.4026    5.1542    0.0838 C   0  0  0  0  0  0  0  0  0  0  0  0
    5.0459    6.3797    0.1896 C   0  0  0  0  0  0  0  0  0  0  0  0
    6.4103    6.1182    0.2427 C   0  0  0  0  0  0  0  0  0  0  0  0
    6.5864    4.7699    0.1702 C   0  0  0  0  0  0  0  0  0  0  0  0
    5.3749    4.1749    0.0807 N   0  0  0  0  0  0  0  0  0  0  0  0
    5.2162    3.2198    0.0218 H   0  0  0  0  0  0  0  0  0  0  0  0
    7.9380    4.0960    0.1951 C   0  0  0  0  0  0  0  0  0  0  0  0
    9.0098    5.1492   -0.1092 C   0  0  0  0  0  0  0  0  0  0  0  0
    8.8020    6.3672    0.7949 C   0  0  0  0  0  0  0  0  0  0  0  0
    7.5359    7.1157    0.3607 C   0  0  0  0  0  0  0  0  0  0  0  0
    4.3901    7.7357    0.2372 C   0  0  0  0  0  0  0  0  0  0  0  0
    4.0958    8.1091    1.6915 C   0  0  0  0  0  0  0  0  0  0  0  0
    3.4400    9.4651    1.7391 C   0  0  0  0  0  0  0  0  0  0  0  0
    3.2296   10.0707    0.7149 O   0  0  0  0  0  0  0  0  0  0  0  0
    3.2581    3.0059   -1.6433 C   0  0  0  0  0  0  0  0  0  0  0  0
    4.4559    3.0496   -1.8617 O   0  0  0  0  0  0  0  0  0  0  0  0
    2.3897    2.1303   -2.1771 N   0  0  0  0  0  0  0  0  0  0  0  0
   -2.2039    1.6489   -1.6117 H   0  0  0  0  0  0  0  0  0  0  0  0
   -0.1291    0.8767   -2.6712 H   0  0  0  0  0  0  0  0  0  0  0  0
   -0.0619    4.7041    0.4520 H   0  0  0  0  0  0  0  0  0  0  0  0
   -2.9831    5.1372   -1.5800 H   0  0  0  0  0  0  0  0  0  0  0  0
   -4.2675    5.3152   -0.5117 H   0  0  0  0  0  0  0  0  0  0  0  0
    2.3342    5.6066    0.5253 H   0  0  0  0  0  0  0  0  0  0  0  0
    7.9704    3.3105   -0.5599 H   0  0  0  0  0  0  0  0  0  0  0  0
    8.1155    3.6658    1.1808 H   0  0  0  0  0  0  0  0  0  0  0  0
    8.9331    5.4543   -1.1528 H   0  0  0  0  0  0  0  0  0  0  0  0
    9.9973    4.7256    0.0735 H   0  0  0  0  0  0  0  0  0  0  0  0
    9.6626    7.0311    0.7135 H   0  0  0  0  0  0  0  0  0  0  0  0
    8.6933    6.0383    1.8284 H   0  0  0  0  0  0  0  0  0  0  0  0
    7.7049    7.5943   -0.6039 H   0  0  0  0  0  0  0  0  0  0  0  0
    7.2816    7.8697    1.1056 H   0  0  0  0  0  0  0  0  0  0  0  0
    5.0578    8.4778   -0.2005 H   0  0  0  0  0  0  0  0  0  0  0  0
    3.4577    7.7084   -0.3267 H   0  0  0  0  0  0  0  0  0  0  0  0
    3.4281    7.3670    2.1291 H   0  0  0  0  0  0  0  0  0  0  0  0
    5.0282    8.1364    2.2554 H   0  0  0  0  0  0  0  0  0  0  0  0
    2.6339    1.4303   -2.8026 H   0  0  0  0  0  0  0  0  0  0  0  0
    3.0896   10.0001    2.9192 O   0  5  0  0  0  0  0  0  0  0  0  0
  1  6  2  0  0  0  0
  1  2  1  0  0  0  0
  1 30  1  0  0  0  0
  2  3  2  0  0  0  0
  2 31  1  0  0  0  0
  3 29  1  0  0  0  0
  3  4  1  0  0  0  0
  4  5  2  0  0  0  0
  4 11  1  0  0  0  0
  5  6  1  0  0  0  0
  5 32  1  0  0  0  0
  6  7  1  0  0  0  0
  7  8  2  0  0  0  0
  7  9  2  0  0  0  0
  7 10  1  0  0  0  0
 10 33  1  0  0  0  0
 10 34  1  0  0  0  0
 11 12  2  0  0  0  0
 11 27  1  0  0  0  0
 12 13  1  0  0  0  0
 12 35  1  0  0  0  0
 13 17  1  0  0  0  0
 13 14  2  0  0  0  0
 14 15  1  0  0  0  0
 14 23  1  0  0  0  0
 15 22  1  0  0  0  0
 15 16  2  0  0  0  0
 16 17  1  0  0  0  0
 16 19  1  0  0  0  0
 17 18  1  0  0  0  0
 19 20  1  0  0  0  0
 19 36  1  0  0  0  0
 19 37  1  0  0  0  0
 20 21  1  0  0  0  0
 20 38  1  0  0  0  0
 20 39  1  0  0  0  0
 21 22  1  0  0  0  0
 21 40  1  0  0  0  0
 21 41  1  0  0  0  0
 22 42  1  0  0  0  0
 22 43  1  0  0  0  0
 23 24  1  0  0  0  0
 23 44  1  0  0  0  0
 23 45  1  0  0  0  0
 24 25  1  0  0  0  0
 24 46  1  0  0  0  0
 24 47  1  0  0  0  0
 25 26  2  0  0  0  0
 25 49  1  0  0  0  0
 27 28  2  0  0  0  0
 27 29  1  0  0  0  0
 29 48  1  0  0  0  0
M  CHG  1  49  -1
M  END
$$$$
ZINC03815529
  -OEChem-08230709403D

 68 72  0     0  0  0  0  0  0999 V2000
    8.0418    5.9497   -0.5473 C   0  0  0  0  0  0  0  0  0  0  0  0
    8.9067    5.0536   -1.3186 N   0  0  0  0  0  0  0  0  0  0  0  0
    8.5795    3.7222   -1.4350 C   0  0  0  0  0  0  0  0  0  0  0  0
    7.4375    3.2089   -0.8317 C   0  0  0  0  0  0  0  0  0  0  0  0
    7.1507    1.8590   -0.9789 C   0  0  0  0  0  0  0  0  0  0  0  0
    7.9443    1.0575   -1.6819 N   0  0  0  0  0  0  0  0  0  0  0  0
    9.0356    1.4935   -2.2718 C   0  0  0  0  0  0  0  0  0  0  0  0
    9.4002    2.8422   -2.1740 C   0  0  0  0  0  0  0  0  0  0  0  0
   10.5707    3.3287   -2.8027 C   0  0  0  0  0  0  0  0  0  0  0  0
   10.8893    4.6540   -2.6823 C   0  0  0  0  0  0  0  0  0  0  0  0
   10.0135    5.5409   -1.9131 C   0  0  0  0  0  0  0  0  0  0  0  0
   10.2891    6.7227   -1.8064 O   0  0  0  0  0  0  0  0  0  0  0  0
   12.1092    5.1895   -3.3305 C   0  0  0  0  0  0  0  0  0  0  0  0
   13.3211    5.2047   -2.6389 C   0  0  0  0  0  0  0  0  0  0  0  0
   14.4557    5.7004   -3.2508 C   0  0  0  0  0  0  0  0  0  0  0  0
   14.3903    6.1908   -4.5426 C   0  0  0  0  0  0  0  0  0  0  0  0
   13.1909    6.1839   -5.2317 C   0  0  0  0  0  0  0  0  0  0  0  0
   12.0500    5.6862   -4.6332 C   0  0  0  0  0  0  0  0  0  0  0  0
   10.5456    5.6790   -5.4995 Cl  0  0  0  0  0  0  0  0  0  0  0  0
   13.4037    4.5962   -1.0151 Cl  0  0  0  0  0  0  0  0  0  0  0  0
    6.0130    1.3360   -0.3808 N   0  0  0  0  0  0  0  0  0  0  0  0
    5.7805   -0.0442   -0.4059 C   0  0  0  0  0  0  0  0  0  0  0  0
    4.4834   -0.5284   -0.5135 C   0  0  0  0  0  0  0  0  0  0  0  0
    4.2553   -1.8900   -0.5426 C   0  0  0  0  0  0  0  0  0  0  0  0
    5.3206   -2.7741   -0.4547 C   0  0  0  0  0  0  0  0  0  0  0  0
    6.6161   -2.2914   -0.3420 C   0  0  0  0  0  0  0  0  0  0  0  0
    6.8464   -0.9300   -0.3175 C   0  0  0  0  0  0  0  0  0  0  0  0
    5.0947   -4.1149   -0.4787 O   0  0  0  0  0  0  0  0  0  0  0  0
    3.7361   -4.5419   -0.5967 C   0  0  0  0  0  0  0  0  0  0  0  0
    3.6810   -6.0709   -0.6067 C   0  0  0  0  0  0  0  0  0  0  0  0
    4.5669   -7.9973    0.5634 C   0  0  0  0  0  0  0  0  0  0  0  0
    5.1438   -8.4731    1.8988 C   0  0  0  0  0  0  0  0  0  0  0  0
    3.7411   -6.8860    3.0702 C   0  0  0  0  0  0  0  0  0  0  0  0
    3.1642   -6.4102    1.7348 C   0  0  0  0  0  0  0  0  0  0  0  0
    4.6270   -8.8124    4.2403 C   0  0  0  0  0  0  0  0  0  0  0  0
    8.3690    5.9647    0.4923 H   0  0  0  0  0  0  0  0  0  0  0  0
    8.1003    6.9564   -0.9612 H   0  0  0  0  0  0  0  0  0  0  0  0
    7.0125    5.5948   -0.5992 H   0  0  0  0  0  0  0  0  0  0  0  0
    6.7844    3.8496   -0.2578 H   0  0  0  0  0  0  0  0  0  0  0  0
    9.6533    0.8088   -2.8339 H   0  0  0  0  0  0  0  0  0  0  0  0
   11.2045    2.6629   -3.3696 H   0  0  0  0  0  0  0  0  0  0  0  0
   15.3952    5.7086   -2.7183 H   0  0  0  0  0  0  0  0  0  0  0  0
   15.2796    6.5811   -5.0151 H   0  0  0  0  0  0  0  0  0  0  0  0
   13.1466    6.5683   -6.2400 H   0  0  0  0  0  0  0  0  0  0  0  0
    5.3789    1.9268    0.0548 H   0  0  0  0  0  0  0  0  0  0  0  0
    3.6535    0.1598   -0.5782 H   0  0  0  0  0  0  0  0  0  0  0  0
    3.2469   -2.2667   -0.6304 H   0  0  0  0  0  0  0  0  0  0  0  0
    7.4449   -2.9804   -0.2729 H   0  0  0  0  0  0  0  0  0  0  0  0
    7.8552   -0.5543   -0.2301 H   0  0  0  0  0  0  0  0  0  0  0  0
    3.1615   -4.1631    0.2486 H   0  0  0  0  0  0  0  0  0  0  0  0
    3.3136   -4.1570   -1.5249 H   0  0  0  0  0  0  0  0  0  0  0  0
    2.6523   -6.3964   -0.7607 H   0  0  0  0  0  0  0  0  0  0  0  0
    4.3073   -6.4517   -1.4134 H   0  0  0  0  0  0  0  0  0  0  0  0
    3.6955   -8.6002    0.3082 H   0  0  0  0  0  0  0  0  0  0  0  0
    5.3217   -8.1004   -0.2162 H   0  0  0  0  0  0  0  0  0  0  0  0
    6.0313   -7.8881    2.1406 H   0  0  0  0  0  0  0  0  0  0  0  0
    5.4117   -9.5270    1.8243 H   0  0  0  0  0  0  0  0  0  0  0  0
    4.6126   -6.2831    3.3253 H   0  0  0  0  0  0  0  0  0  0  0  0
    2.9864   -6.7825    3.8499 H   0  0  0  0  0  0  0  0  0  0  0  0
    2.8963   -5.3563    1.8093 H   0  0  0  0  0  0  0  0  0  0  0  0
    2.2766   -6.9948    1.4928 H   0  0  0  0  0  0  0  0  0  0  0  0
    3.8386   -8.7309    4.9885 H   0  0  0  0  0  0  0  0  0  0  0  0
    4.9135   -9.8579    4.1267 H   0  0  0  0  0  0  0  0  0  0  0  0
    5.4922   -8.2312    4.5593 H   0  0  0  0  0  0  0  0  0  0  0  0
    4.1934   -6.5726    0.6863 N   0  3  0  0  0  0  0  0  0  0  0  0
    5.0253   -6.0308    0.9483 H   0  0  0  0  0  0  0  0  0  0  0  0
    4.1148   -8.3108    2.9472 N   0  3  0  0  0  0  0  0  0  0  0  0
    3.2829   -8.8527    2.6851 H   0  0  0  0  0  0  0  0  0  0  0  0
  1  2  1  0  0  0  0
  1 36  1  0  0  0  0
  1 37  1  0  0  0  0
  1 38  1  0  0  0  0
  2 11  1  0  0  0  0
  2  3  1  0  0  0  0
  3  8  2  0  0  0  0
  3  4  1  0  0  0  0
  4  5  2  0  0  0  0
  4 39  1  0  0  0  0
  5  6  1  0  0  0  0
  5 21  1  0  0  0  0
  6  7  2  0  0  0  0
  7  8  1  0  0  0  0
  7 40  1  0  0  0  0
  8  9  1  0  0  0  0
  9 10  2  0  0  0  0
  9 41  1  0  0  0  0
 10 11  1  0  0  0  0
 10 13  1  0  0  0  0
 11 12  2  0  0  0  0
 13 18  2  0  0  0  0
 13 14  1  0  0  0  0
 14 15  2  0  0  0  0
 14 20  1  0  0  0  0
 15 16  1  0  0  0  0
 15 42  1  0  0  0  0
 16 17  2  0  0  0  0
 16 43  1  0  0  0  0
 17 18  1  0  0  0  0
 17 44  1  0  0  0  0
 18 19  1  0  0  0  0
 21 22  1  0  0  0  0
 21 45  1  0  0  0  0
 22 27  2  0  0  0  0
 22 23  1  0  0  0  0
 23 24  2  0  0  0  0
 23 46  1  0  0  0  0
 24 25  1  0  0  0  0
 24 47  1  0  0  0  0
 25 26  2  0  0  0  0
 25 28  1  0  0  0  0
 26 27  1  0  0  0  0
 26 48  1  0  0  0  0
 27 49  1  0  0  0  0
 28 29  1  0  0  0  0
 29 30  1  0  0  0  0
 29 50  1  0  0  0  0
 29 51  1  0  0  0  0
 30 52  1  0  0  0  0
 30 53  1  0  0  0  0
 30 65  1  0  0  0  0
 31 32  1  0  0  0  0
 31 54  1  0  0  0  0
 31 55  1  0  0  0  0
 31 65  1  0  0  0  0
 32 56  1  0  0  0  0
 32 57  1  0  0  0  0
 32 67  1  0  0  0  0
 33 34  1  0  0  0  0
 33 58  1  0  0  0  0
 33 59  1  0  0  0  0
 33 67  1  0  0  0  0
 34 60  1  0  0  0  0
 34 61  1  0  0  0  0
 34 65  1  0  0  0  0
 35 62  1  0  0  0  0
 35 63  1  0  0  0  0
 35 64  1  0  0  0  0
 35 67  1  0  0  0  0
 65 66  1  0  0  0  0
 67 68  1  0  0  0  0
M  CHG  2  65   1  67   1
M  END
$$$$
ZINC03815530
  -OEChem-08230709403D

 49 52  0     0  0  0  0  0  0999 V2000
    2.2533    5.3981    0.0094 C   0  0  0  0  0  0  0  0  0  0  0  0
    2.3166    3.9345    0.0015 N   0  0  0  0  0  0  0  0  0  0  0  0
    1.1525    3.2011    0.0078 C   0  0  0  0  0  0  0  0  0  0  0  0
   -0.0889    3.8260    0.0225 C   0  0  0  0  0  0  0  0  0  0  0  0
   -1.2339    3.0420    0.0293 C   0  0  0  0  0  0  0  0  0  0  0  0
   -0.0126    1.0758    0.0080 C   0  0  0  0  0  0  0  0  0  0  0  0
    1.1922    1.7896    0.0003 C   0  0  0  0  0  0  0  0  0  0  0  0
    2.4378    1.1183   -0.0143 C   0  0  0  0  0  0  0  0  0  0  0  0
    3.5909    1.8547   -0.0209 C   0  0  0  0  0  0  0  0  0  0  0  0
    3.5144    3.3174   -0.0128 C   0  0  0  0  0  0  0  0  0  0  0  0
    4.5375    3.9785   -0.0187 O   0  0  0  0  0  0  0  0  0  0  0  0
    4.9083    1.1771   -0.0366 C   0  0  0  0  0  0  0  0  0  0  0  0
    5.5452    0.8553    1.1626 C   0  0  0  0  0  0  0  0  0  0  0  0
    6.7708    0.2189    1.1409 C   0  0  0  0  0  0  0  0  0  0  0  0
    7.3721   -0.0896   -0.0661 C   0  0  0  0  0  0  0  0  0  0  0  0
    6.7488    0.2318   -1.2584 C   0  0  0  0  0  0  0  0  0  0  0  0
    5.5204    0.8631   -1.2507 C   0  0  0  0  0  0  0  0  0  0  0  0
    4.7398    1.2655   -2.7482 Cl  0  0  0  0  0  0  0  0  0  0  0  0
    4.7953    1.2475    2.6783 Cl  0  0  0  0  0  0  0  0  0  0  0  0
   -2.4780    3.6553    0.0445 N   0  0  0  0  0  0  0  0  0  0  0  0
   -2.5740    5.1172    0.0532 C   0  0  0  0  0  0  0  0  0  0  0  0
   -4.0467    5.5315    0.0695 C   0  0  0  0  0  0  0  0  0  0  0  0
   -4.1469    7.0582    0.0787 C   0  0  0  0  0  0  0  0  0  0  0  0
   -5.5570    7.4550    0.0943 N   0  0  0  0  0  0  0  0  0  0  0  0
   -6.3479    7.6862   -0.9987 C   0  0  0  0  0  0  0  0  0  0  0  0
   -7.5665    8.0218   -0.5339 C   0  0  0  0  0  0  0  0  0  0  0  0
   -7.5184    8.0053    0.8064 N   0  0  0  0  0  0  0  0  0  0  0  0
   -6.3178    7.6666    1.1898 C   0  0  0  0  0  0  0  0  0  0  0  0
    3.2643    5.8055    0.0020 H   0  0  0  0  0  0  0  0  0  0  0  0
    1.7160    5.7434   -0.8738 H   0  0  0  0  0  0  0  0  0  0  0  0
    1.7327    5.7344    0.9060 H   0  0  0  0  0  0  0  0  0  0  0  0
   -0.1613    4.9035    0.0290 H   0  0  0  0  0  0  0  0  0  0  0  0
    0.0021   -0.0041    0.0020 H   0  0  0  0  0  0  0  0  0  0  0  0
    2.4777    0.0390   -0.0197 H   0  0  0  0  0  0  0  0  0  0  0  0
    7.2627   -0.0347    2.0683 H   0  0  0  0  0  0  0  0  0  0  0  0
    8.3326   -0.5832   -0.0775 H   0  0  0  0  0  0  0  0  0  0  0  0
    7.2235   -0.0118   -2.1974 H   0  0  0  0  0  0  0  0  0  0  0  0
   -3.2845    3.1163    0.0493 H   0  0  0  0  0  0  0  0  0  0  0  0
   -2.0765    5.5086    0.9406 H   0  0  0  0  0  0  0  0  0  0  0  0
   -2.0936    5.5182   -0.8392 H   0  0  0  0  0  0  0  0  0  0  0  0
   -4.5441    5.1401   -0.8178 H   0  0  0  0  0  0  0  0  0  0  0  0
   -4.5271    5.1306    0.9620 H   0  0  0  0  0  0  0  0  0  0  0  0
   -3.6494    7.4497    0.9661 H   0  0  0  0  0  0  0  0  0  0  0  0
   -3.6665    7.4592   -0.8138 H   0  0  0  0  0  0  0  0  0  0  0  0
   -6.0522    7.6114   -2.0348 H   0  0  0  0  0  0  0  0  0  0  0  0
   -8.4297    8.2666   -1.1351 H   0  0  0  0  0  0  0  0  0  0  0  0
   -5.9876    7.5709    2.2136 H   0  0  0  0  0  0  0  0  0  0  0  0
   -1.2320    1.6710    0.0167 N   0  3  0  0  0  0  0  0  0  0  0  0
   -2.1024    1.1264    0.0140 H   0  0  0  0  0  0  0  0  0  0  0  0
  1  2  1  0  0  0  0
  1 29  1  0  0  0  0
  1 30  1  0  0  0  0
  1 31  1  0  0  0  0
  2 10  1  0  0  0  0
  2  3  1  0  0  0  0
  3  7  2  0  0  0  0
  3  4  1  0  0  0  0
  4  5  2  0  0  0  0
  4 32  1  0  0  0  0
  5 20  1  0  0  0  0
  5 48  1  0  0  0  0
  6  7  1  0  0  0  0
  6 33  1  0  0  0  0
  6 48  2  0  0  0  0
  7  8  1  0  0  0  0
  8  9  2  0  0  0  0
  8 34  1  0  0  0  0
  9 10  1  0  0  0  0
  9 12  1  0  0  0  0
 10 11  2  0  0  0  0
 12 17  2  0  0  0  0
 12 13  1  0  0  0  0
 13 14  2  0  0  0  0
 13 19  1  0  0  0  0
 14 15  1  0  0  0  0
 14 35  1  0  0  0  0
 15 16  2  0  0  0  0
 15 36  1  0  0  0  0
 16 17  1  0  0  0  0
 16 37  1  0  0  0  0
 17 18  1  0  0  0  0
 20 21  1  0  0  0  0
 20 38  1  0  0  0  0
 21 22  1  0  0  0  0
 21 39  1  0  0  0  0
 21 40  1  0  0  0  0
 22 23  1  0  0  0  0
 22 41  1  0  0  0  0
 22 42  1  0  0  0  0
 23 24  1  0  0  0  0
 23 43  1  0  0  0  0
 23 44  1  0  0  0  0
 24 28  1  0  0  0  0
 24 25  1  0  0  0  0
 25 26  2  0  0  0  0
 25 45  1  0  0  0  0
 26 27  1  0  0  0  0
 26 46  1  0  0  0  0
 27 28  2  0  0  0  0
 28 47  1  0  0  0  0
 48 49  1  0  0  0  0
M  CHG  1  48   1
M  END
$$$$
ZINC03815530
  -OEChem-08230709403D

 50 53  0     0  0  0  0  0  0999 V2000
    2.2533    5.3981    0.0094 C   0  0  0  0  0  0  0  0  0  0  0  0
    2.3166    3.9345    0.0015 N   0  0  0  0  0  0  0  0  0  0  0  0
    1.1525    3.2011    0.0078 C   0  0  0  0  0  0  0  0  0  0  0  0
   -0.0889    3.8260    0.0225 C   0  0  0  0  0  0  0  0  0  0  0  0
   -1.2339    3.0420    0.0293 C   0  0  0  0  0  0  0  0  0  0  0  0
   -0.0126    1.0758    0.0080 C   0  0  0  0  0  0  0  0  0  0  0  0
    1.1922    1.7896    0.0003 C   0  0  0  0  0  0  0  0  0  0  0  0
    2.4378    1.1183   -0.0143 C   0  0  0  0  0  0  0  0  0  0  0  0
    3.5909    1.8547   -0.0209 C   0  0  0  0  0  0  0  0  0  0  0  0
    3.5144    3.3174   -0.0128 C   0  0  0  0  0  0  0  0  0  0  0  0
    4.5375    3.9785   -0.0187 O   0  0  0  0  0  0  0  0  0  0  0  0
    4.9083    1.1771   -0.0366 C   0  0  0  0  0  0  0  0  0  0  0  0
    5.5452    0.8553    1.1626 C   0  0  0  0  0  0  0  0  0  0  0  0
    6.7708    0.2189    1.1409 C   0  0  0  0  0  0  0  0  0  0  0  0
    7.3721   -0.0896   -0.0661 C   0  0  0  0  0  0  0  0  0  0  0  0
    6.7488    0.2318   -1.2584 C   0  0  0  0  0  0  0  0  0  0  0  0
    5.5204    0.8631   -1.2507 C   0  0  0  0  0  0  0  0  0  0  0  0
    4.7398    1.2655   -2.7482 Cl  0  0  0  0  0  0  0  0  0  0  0  0
    4.7953    1.2475    2.6783 Cl  0  0  0  0  0  0  0  0  0  0  0  0
   -2.4780    3.6553    0.0445 N   0  0  0  0  0  0  0  0  0  0  0  0
   -2.5740    5.1172    0.0532 C   0  0  0  0  0  0  0  0  0  0  0  0
   -4.0467    5.5315    0.0695 C   0  0  0  0  0  0  0  0  0  0  0  0
   -4.1469    7.0582    0.0787 C   0  0  0  0  0  0  0  0  0  0  0  0
   -5.5570    7.4550    0.0943 N   0  0  0  0  0  0  0  0  0  0  0  0
   -6.3479    7.6862   -0.9987 C   0  0  0  0  0  0  0  0  0  0  0  0
   -7.5665    8.0218   -0.5339 C   0  0  0  0  0  0  0  0  0  0  0  0
   -6.3178    7.6666    1.1898 C   0  0  0  0  0  0  0  0  0  0  0  0
    3.2643    5.8055    0.0020 H   0  0  0  0  0  0  0  0  0  0  0  0
    1.7160    5.7434   -0.8738 H   0  0  0  0  0  0  0  0  0  0  0  0
    1.7327    5.7344    0.9060 H   0  0  0  0  0  0  0  0  0  0  0  0
   -0.1613    4.9035    0.0290 H   0  0  0  0  0  0  0  0  0  0  0  0
    0.0021   -0.0041    0.0020 H   0  0  0  0  0  0  0  0  0  0  0  0
    2.4777    0.0390   -0.0197 H   0  0  0  0  0  0  0  0  0  0  0  0
    7.2627   -0.0347    2.0683 H   0  0  0  0  0  0  0  0  0  0  0  0
    8.3326   -0.5832   -0.0775 H   0  0  0  0  0  0  0  0  0  0  0  0
    7.2235   -0.0118   -2.1974 H   0  0  0  0  0  0  0  0  0  0  0  0
   -3.2845    3.1163    0.0493 H   0  0  0  0  0  0  0  0  0  0  0  0
   -2.0765    5.5086    0.9406 H   0  0  0  0  0  0  0  0  0  0  0  0
   -2.0936    5.5182   -0.8392 H   0  0  0  0  0  0  0  0  0  0  0  0
   -4.5441    5.1401   -0.8178 H   0  0  0  0  0  0  0  0  0  0  0  0
   -4.5271    5.1306    0.9620 H   0  0  0  0  0  0  0  0  0  0  0  0
   -3.6494    7.4497    0.9661 H   0  0  0  0  0  0  0  0  0  0  0  0
   -3.6665    7.4592   -0.8138 H   0  0  0  0  0  0  0  0  0  0  0  0
   -6.0522    7.6114   -2.0348 H   0  0  0  0  0  0  0  0  0  0  0  0
   -8.4297    8.2666   -1.1351 H   0  0  0  0  0  0  0  0  0  0  0  0
   -5.9876    7.5709    2.2136 H   0  0  0  0  0  0  0  0  0  0  0  0
   -1.2320    1.6710    0.0167 N   0  3  0  0  0  0  0  0  0  0  0  0
   -2.1024    1.1264    0.0140 H   0  0  0  0  0  0  0  0  0  0  0  0
   -7.5174    8.0050    0.8056 N   0  3  0  0  0  0  0  0  0  0  0  0
   -8.3014    8.2243    1.4312 H   0  0  0  0  0  0  0  0  0  0  0  0
  1  2  1  0  0  0  0
  1 28  1  0  0  0  0
  1 29  1  0  0  0  0
  1 30  1  0  0  0  0
  2 10  1  0  0  0  0
  2  3  1  0  0  0  0
  3  7  2  0  0  0  0
  3  4  1  0  0  0  0
  4  5  2  0  0  0  0
  4 31  1  0  0  0  0
  5 20  1  0  0  0  0
  5 47  1  0  0  0  0
  6  7  1  0  0  0  0
  6 32  1  0  0  0  0
  6 47  2  0  0  0  0
  7  8  1  0  0  0  0
  8  9  2  0  0  0  0
  8 33  1  0  0  0  0
  9 10  1  0  0  0  0
  9 12  1  0  0  0  0
 10 11  2  0  0  0  0
 12 17  2  0  0  0  0
 12 13  1  0  0  0  0
 13 14  2  0  0  0  0
 13 19  1  0  0  0  0
 14 15  1  0  0  0  0
 14 34  1  0  0  0  0
 15 16  2  0  0  0  0
 15 35  1  0  0  0  0
 16 17  1  0  0  0  0
 16 36  1  0  0  0  0
 17 18  1  0  0  0  0
 20 21  1  0  0  0  0
 20 37  1  0  0  0  0
 21 22  1  0  0  0  0
 21 38  1  0  0  0  0
 21 39  1  0  0  0  0
 22 23  1  0  0  0  0
 22 40  1  0  0  0  0
 22 41  1  0  0  0  0
 23 24  1  0  0  0  0
 23 42  1  0  0  0  0
 23 43  1  0  0  0  0
 24 27  1  0  0  0  0
 24 25  1  0  0  0  0
 25 26  2  0  0  0  0
 25 44  1  0  0  0  0
 26 45  1  0  0  0  0
 26 49  1  0  0  0  0
 27 46  1  0  0  0  0
 27 49  2  0  0  0  0
 47 48  1  0  0  0  0
 49 50  1  0  0  0  0
M  CHG  2  47   1  49   1
M  END
$$$$
ZINC03815531
  -OEChem-08230709403D

 36 38  0     0  0  0  0  0  0999 V2000
   -0.0127    1.0858    0.0080 C   0  0  0  0  0  0  0  0  0  0  0  0
   -0.6984    1.5583    1.2133 N   0  0  0  0  0  0  0  0  0  0  0  0
   -0.8415    2.9191    1.4415 C   0  0  0  0  0  0  0  0  0  0  0  0
   -0.3300    3.8213    0.5191 C   0  0  0  0  0  0  0  0  0  0  0  0
   -0.4789    5.1820    0.7576 C   0  0  0  0  0  0  0  0  0  0  0  0
   -1.1475    5.5872    1.9339 C   0  0  0  0  0  0  0  0  0  0  0  0
   -1.3179    6.9646    2.2102 C   0  0  0  0  0  0  0  0  0  0  0  0
   -0.8288    7.8865    1.3254 C   0  0  0  0  0  0  0  0  0  0  0  0
   -0.1408    7.4325    0.1146 C   0  0  0  0  0  0  0  0  0  0  0  0
    0.2967    8.2487   -0.6768 O   0  0  0  0  0  0  0  0  0  0  0  0
    0.0104    6.1155   -0.1269 N   0  0  0  0  0  0  0  0  0  0  0  0
    0.7008    5.6741   -1.3413 C   0  0  0  0  0  0  0  0  0  0  0  0
   -0.9945    9.3348    1.5900 C   0  0  0  0  0  0  0  0  0  0  0  0
   -2.1211   10.0091    1.1176 C   0  0  0  0  0  0  0  0  0  0  0  0
   -2.2720   11.3582    1.3723 C   0  0  0  0  0  0  0  0  0  0  0  0
   -1.3043   12.0430    2.0850 C   0  0  0  0  0  0  0  0  0  0  0  0
   -0.1823   11.3818    2.5513 C   0  0  0  0  0  0  0  0  0  0  0  0
   -0.0218   10.0317    2.3080 C   0  0  0  0  0  0  0  0  0  0  0  0
    1.3873    9.2038    2.8935 Cl  0  0  0  0  0  0  0  0  0  0  0  0
   -3.3332    9.1530    0.2167 Cl  0  0  0  0  0  0  0  0  0  0  0  0
   -1.6325    4.6095    2.8107 C   0  0  0  0  0  0  0  0  0  0  0  0
    0.0021   -0.0041    0.0020 H   0  0  0  0  0  0  0  0  0  0  0  0
    1.0099    1.4631    0.0003 H   0  0  0  0  0  0  0  0  0  0  0  0
   -0.5399    1.4469   -0.8751 H   0  0  0  0  0  0  0  0  0  0  0  0
   -1.0524    0.9196    1.8518 H   0  0  0  0  0  0  0  0  0  0  0  0
    0.1750    3.4715   -0.3692 H   0  0  0  0  0  0  0  0  0  0  0  0
   -1.8275    7.2838    3.1074 H   0  0  0  0  0  0  0  0  0  0  0  0
   -0.0228    5.5549   -2.1477 H   0  0  0  0  0  0  0  0  0  0  0  0
    1.4443    6.4180   -1.6273 H   0  0  0  0  0  0  0  0  0  0  0  0
    1.1946    4.7209   -1.1524 H   0  0  0  0  0  0  0  0  0  0  0  0
   -3.1455   11.8804    1.0107 H   0  0  0  0  0  0  0  0  0  0  0  0
   -1.4251   13.0988    2.2780 H   0  0  0  0  0  0  0  0  0  0  0  0
    0.5695   11.9223    3.1071 H   0  0  0  0  0  0  0  0  0  0  0  0
   -2.1461    4.9042    3.7139 H   0  0  0  0  0  0  0  0  0  0  0  0
   -1.5004    3.2770    2.5890 N   0  3  0  0  0  0  0  0  0  0  0  0
   -1.8722    2.5779    3.2426 H   0  0  0  0  0  0  0  0  0  0  0  0
  1  2  1  0  0  0  0
  1 22  1  0  0  0  0
  1 23  1  0  0  0  0
  1 24  1  0  0  0  0
  2  3  1  0  0  0  0
  2 25  1  0  0  0  0
  3  4  2  0  0  0  0
  3 35  1  0  0  0  0
  4  5  1  0  0  0  0
  4 26  1  0  0  0  0
  5 11  1  0  0  0  0
  5  6  2  0  0  0  0
  6  7  1  0  0  0  0
  6 21  1  0  0  0  0
  7  8  2  0  0  0  0
  7 27  1  0  0  0  0
  8  9  1  0  0  0  0
  8 13  1  0  0  0  0
  9 10  2  0  0  0  0
  9 11  1  0  0  0  0
 11 12  1  0  0  0  0
 12 28  1  0  0  0  0
 12 29  1  0  0  0  0
 12 30  1  0  0  0  0
 13 18  2  0  0  0  0
 13 14  1  0  0  0  0
 14 15  2  0  0  0  0
 14 20  1  0  0  0  0
 15 16  1  0  0  0  0
 15 31  1  0  0  0  0
 16 17  2  0  0  0  0
 16 32  1  0  0  0  0
 17 18  1  0  0  0  0
 17 33  1  0  0  0  0
 18 19  1  0  0  0  0
 21 34  1  0  0  0  0
 21 35  2  0  0  0  0
 35 36  1  0  0  0  0
M  CHG  1  35   1
M  END
$$$$
ZINC03815532
  -OEChem-08230709403D

 46 49  0     0  0  0  0  0  0999 V2000
   -1.2677    2.1516   -1.4090 C   0  0  0  0  0  0  0  0  0  0  0  0
   -0.1024    1.7178   -1.9971 C   0  0  0  0  0  0  0  0  0  0  0  0
    1.1050    2.3564   -1.7213 C   0  0  0  0  0  0  0  0  0  0  0  0
    1.1203    3.4436   -0.8321 C   0  0  0  0  0  0  0  0  0  0  0  0
   -0.0517    3.8801   -0.2335 C   0  0  0  0  0  0  0  0  0  0  0  0
   -1.2546    3.2316   -0.5189 C   0  0  0  0  0  0  0  0  0  0  0  0
   -2.5081    3.6863    0.1115 C   0  0  0  0  0  0  0  0  0  0  0  0
   -2.4949    4.6268    0.8806 O   0  0  0  0  0  0  0  0  0  0  0  0
    2.5282    3.8943   -0.7511 C   0  0  0  0  0  0  0  0  0  0  0  0
    3.0359    4.9367    0.0003 C   0  0  0  0  0  0  0  0  0  0  0  0
    4.4300    5.1330    0.0826 C   0  0  0  0  0  0  0  0  0  0  0  0
    5.0825    6.3537    0.1878 C   0  0  0  0  0  0  0  0  0  0  0  0
    6.4449    6.0818    0.2411 C   0  0  0  0  0  0  0  0  0  0  0  0
    6.6108    4.7322    0.1692 C   0  0  0  0  0  0  0  0  0  0  0  0
    5.3947    4.1465    0.0795 N   0  0  0  0  0  0  0  0  0  0  0  0
    5.2288    3.1926    0.0207 H   0  0  0  0  0  0  0  0  0  0  0  0
    7.9572    4.0481    0.1948 C   0  0  0  0  0  0  0  0  0  0  0  0
    9.0370    5.0930   -0.1097 C   0  0  0  0  0  0  0  0  0  0  0  0
    8.8382    6.3129    0.7938 C   0  0  0  0  0  0  0  0  0  0  0  0
    7.5780    7.0708    0.3590 C   0  0  0  0  0  0  0  0  0  0  0  0
    4.4370    7.7146    0.2345 C   0  0  0  0  0  0  0  0  0  0  0  0
    4.1452    8.0911    1.6885 C   0  0  0  0  0  0  0  0  0  0  0  0
    3.4997    9.4520    1.7352 C   0  0  0  0  0  0  0  0  0  0  0  0
    3.2941   10.0587    0.7107 O   0  0  0  0  0  0  0  0  0  0  0  0
    3.2677    2.9922   -1.6431 C   0  0  0  0  0  0  0  0  0  0  0  0
    4.4657    3.0256   -1.8615 O   0  0  0  0  0  0  0  0  0  0  0  0
    2.3923    2.1237   -2.1763 N   0  0  0  0  0  0  0  0  0  0  0  0
   -2.1991    1.6530   -1.6330 H   0  0  0  0  0  0  0  0  0  0  0  0
   -0.1241    0.8810   -2.6794 H   0  0  0  0  0  0  0  0  0  0  0  0
   -0.0340    4.7164    0.4496 H   0  0  0  0  0  0  0  0  0  0  0  0
    2.3651    5.6012    0.5245 H   0  0  0  0  0  0  0  0  0  0  0  0
    7.9838    3.2621   -0.5599 H   0  0  0  0  0  0  0  0  0  0  0  0
    8.1312    3.6170    1.1807 H   0  0  0  0  0  0  0  0  0  0  0  0
    8.9630    5.3982   -1.1535 H   0  0  0  0  0  0  0  0  0  0  0  0
   10.0213    4.6620    0.0735 H   0  0  0  0  0  0  0  0  0  0  0  0
    9.7038    6.9703    0.7124 H   0  0  0  0  0  0  0  0  0  0  0  0
    8.7267    5.9853    1.8274 H   0  0  0  0  0  0  0  0  0  0  0  0
    7.7509    7.5477   -0.6058 H   0  0  0  0  0  0  0  0  0  0  0  0
    7.3292    7.8271    1.1035 H   0  0  0  0  0  0  0  0  0  0  0  0
    5.1104    8.4514   -0.2034 H   0  0  0  0  0  0  0  0  0  0  0  0
    3.5046    7.6941   -0.3296 H   0  0  0  0  0  0  0  0  0  0  0  0
    3.4717    7.3543    2.1264 H   0  0  0  0  0  0  0  0  0  0  0  0
    5.0776    8.1116    2.2527 H   0  0  0  0  0  0  0  0  0  0  0  0
    2.6318    1.4218   -2.8015 H   0  0  0  0  0  0  0  0  0  0  0  0
   -3.6678    3.0588   -0.1656 O   0  5  0  0  0  0  0  0  0  0  0  0
    3.1531    9.9903    2.9150 O   0  5  0  0  0  0  0  0  0  0  0  0
  1  6  2  0  0  0  0
  1  2  1  0  0  0  0
  1 28  1  0  0  0  0
  2  3  2  0  0  0  0
  2 29  1  0  0  0  0
  3 27  1  0  0  0  0
  3  4  1  0  0  0  0
  4  5  2  0  0  0  0
  4  9  1  0  0  0  0
  5  6  1  0  0  0  0
  5 30  1  0  0  0  0
  6  7  1  0  0  0  0
  7  8  2  0  0  0  0
  7 45  1  0  0  0  0
  9 10  2  0  0  0  0
  9 25  1  0  0  0  0
 10 11  1  0  0  0  0
 10 31  1  0  0  0  0
 11 15  1  0  0  0  0
 11 12  2  0  0  0  0
 12 13  1  0  0  0  0
 12 21  1  0  0  0  0
 13 20  1  0  0  0  0
 13 14  2  0  0  0  0
 14 15  1  0  0  0  0
 14 17  1  0  0  0  0
 15 16  1  0  0  0  0
 17 18  1  0  0  0  0
 17 32  1  0  0  0  0
 17 33  1  0  0  0  0
 18 19  1  0  0  0  0
 18 34  1  0  0  0  0
 18 35  1  0  0  0  0
 19 20  1  0  0  0  0
 19 36  1  0  0  0  0
 19 37  1  0  0  0  0
 20 38  1  0  0  0  0
 20 39  1  0  0  0  0
 21 22  1  0  0  0  0
 21 40  1  0  0  0  0
 21 41  1  0  0  0  0
 22 23  1  0  0  0  0
 22 42  1  0  0  0  0
 22 43  1  0  0  0  0
 23 24  2  0  0  0  0
 23 46  1  0  0  0  0
 25 26  2  0  0  0  0
 25 27  1  0  0  0  0
 27 44  1  0  0  0  0
M  CHG  2  45  -1  46  -1
M  END
$$$$
ZINC03815533
  -OEChem-08230709403D

 41 44  0     0  0  0  0  0  0999 V2000
   -8.4605    0.3830    6.7077 C   0  0  0  0  0  0  0  0  0  0  0  0
   -7.1467    0.7415    6.9331 C   0  0  0  0  0  0  0  0  0  0  0  0
   -6.2664    0.8727    5.8651 C   0  0  0  0  0  0  0  0  0  0  0  0
   -6.7346    0.6425    4.5639 C   0  0  0  0  0  0  0  0  0  0  0  0
   -8.0586    0.2750    4.3482 C   0  0  0  0  0  0  0  0  0  0  0  0
   -8.9176    0.1497    5.4215 C   0  0  0  0  0  0  0  0  0  0  0  0
  -10.5983   -0.3070    5.1545 S   0  0  0  0  0  0  0  0  0  0  0  0
  -10.6388   -0.9998    3.9145 O   0  0  0  0  0  0  0  0  0  0  0  0
  -11.0589   -0.8876    6.3670 O   0  0  0  0  0  0  0  0  0  0  0  0
  -11.4583    1.0923    4.9432 N   0  0  0  0  0  0  0  0  0  0  0  0
   -5.5802    0.8529    3.6624 C   0  0  0  0  0  0  0  0  0  0  0  0
   -5.5567    0.7360    2.2857 C   0  0  0  0  0  0  0  0  0  0  0  0
   -4.3619    0.9803    1.5776 C   0  0  0  0  0  0  0  0  0  0  0  0
   -3.4376    0.0270    1.1730 C   0  0  0  0  0  0  0  0  0  0  0  0
   -2.4198    0.7044    0.5110 C   0  0  0  0  0  0  0  0  0  0  0  0
   -2.7209    2.0323    0.5172 C   0  0  0  0  0  0  0  0  0  0  0  0
   -3.8976    2.2109    1.1602 N   0  0  0  0  0  0  0  0  0  0  0  0
   -4.3406    3.0617    1.3042 H   0  0  0  0  0  0  0  0  0  0  0  0
   -1.8474    3.0951   -0.1057 C   0  0  0  0  0  0  0  0  0  0  0  0
   -0.4526    2.5019   -0.3365 C   0  0  0  0  0  0  0  0  0  0  0  0
   -0.5807    1.1631   -1.0682 C   0  0  0  0  0  0  0  0  0  0  0  0
   -1.1813    0.1181   -0.1200 C   0  0  0  0  0  0  0  0  0  0  0  0
   -4.4666    1.2191    4.5468 C   0  0  0  0  0  0  0  0  0  0  0  0
   -3.3299    1.4812    4.1954 O   0  0  0  0  0  0  0  0  0  0  0  0
   -4.9209    1.2149    5.8115 N   0  0  0  0  0  0  0  0  0  0  0  0
   -9.1384    0.2831    7.5425 H   0  0  0  0  0  0  0  0  0  0  0  0
   -6.8021    0.9208    7.9408 H   0  0  0  0  0  0  0  0  0  0  0  0
   -8.4143    0.0932    3.3448 H   0  0  0  0  0  0  0  0  0  0  0  0
  -11.0064    1.9498    4.9814 H   0  0  0  0  0  0  0  0  0  0  0  0
  -12.4139    1.0545    4.7813 H   0  0  0  0  0  0  0  0  0  0  0  0
   -6.4534    0.4575    1.7520 H   0  0  0  0  0  0  0  0  0  0  0  0
   -3.4975   -1.0382    1.3408 H   0  0  0  0  0  0  0  0  0  0  0  0
   -1.7758    3.9509    0.5656 H   0  0  0  0  0  0  0  0  0  0  0  0
   -2.2746    3.4097   -1.0579 H   0  0  0  0  0  0  0  0  0  0  0  0
    0.0389    2.3454    0.6237 H   0  0  0  0  0  0  0  0  0  0  0  0
    0.1395    3.1902   -0.9396 H   0  0  0  0  0  0  0  0  0  0  0  0
   -1.2305    1.2835   -1.9350 H   0  0  0  0  0  0  0  0  0  0  0  0
    0.4049    0.8325   -1.3960 H   0  0  0  0  0  0  0  0  0  0  0  0
   -1.4445   -0.7785   -0.6812 H   0  0  0  0  0  0  0  0  0  0  0  0
   -0.4577   -0.1328    0.6556 H   0  0  0  0  0  0  0  0  0  0  0  0
   -4.3784    1.4237    6.5880 H   0  0  0  0  0  0  0  0  0  0  0  0
  1  6  2  0  0  0  0
  1  2  1  0  0  0  0
  1 26  1  0  0  0  0
  2  3  2  0  0  0  0
  2 27  1  0  0  0  0
  3 25  1  0  0  0  0
  3  4  1  0  0  0  0
  4  5  2  0  0  0  0
  4 11  1  0  0  0  0
  5  6  1  0  0  0  0
  5 28  1  0  0  0  0
  6  7  1  0  0  0  0
  7  8  2  0  0  0  0
  7  9  2  0  0  0  0
  7 10  1  0  0  0  0
 10 29  1  0  0  0  0
 10 30  1  0  0  0  0
 11 12  2  0  0  0  0
 11 23  1  0  0  0  0
 12 13  1  0  0  0  0
 12 31  1  0  0  0  0
 13 17  1  0  0  0  0
 13 14  2  0  0  0  0
 14 15  1  0  0  0  0
 14 32  1  0  0  0  0
 15 22  1  0  0  0  0
 15 16  2  0  0  0  0
 16 17  1  0  0  0  0
 16 19  1  0  0  0  0
 17 18  1  0  0  0  0
 19 20  1  0  0  0  0
 19 33  1  0  0  0  0
 19 34  1  0  0  0  0
 20 21  1  0  0  0  0
 20 35  1  0  0  0  0
 20 36  1  0  0  0  0
 21 22  1  0  0  0  0
 21 37  1  0  0  0  0
 21 38  1  0  0  0  0
 22 39  1  0  0  0  0
 22 40  1  0  0  0  0
 23 24  2  0  0  0  0
 23 25  1  0  0  0  0
 25 41  1  0  0  0  0
M  END
$$$$
ZINC03815534
  -OEChem-08230709403D

 59 62  0     0  0  0  0  0  0999 V2000
    0.0021   -0.0041    0.0020 C   0  0  0  0  0  0  0  0  0  0  0  0
   -0.0178    1.4608    0.0101 N   0  0  0  0  0  0  0  0  0  0  0  0
   -1.2216    2.1269    0.0194 C   0  0  0  0  0  0  0  0  0  0  0  0
   -2.4255    1.4324    0.0320 C   0  0  0  0  0  0  0  0  0  0  0  0
   -3.6131    2.1500    0.0463 C   0  0  0  0  0  0  0  0  0  0  0  0
   -2.5054    4.1825    0.0466 C   0  0  0  0  0  0  0  0  0  0  0  0
   -1.2621    3.5384    0.0322 C   0  0  0  0  0  0  0  0  0  0  0  0
   -0.0566    4.2794    0.0247 C   0  0  0  0  0  0  0  0  0  0  0  0
    1.1365    3.6096    0.0101 C   0  0  0  0  0  0  0  0  0  0  0  0
    1.1430    2.1450    0.0027 C   0  0  0  0  0  0  0  0  0  0  0  0
    2.2020    1.5430   -0.0099 O   0  0  0  0  0  0  0  0  0  0  0  0
    2.4133    4.3610    0.0015 C   0  0  0  0  0  0  0  0  0  0  0  0
    3.0084    4.7175   -1.2093 C   0  0  0  0  0  0  0  0  0  0  0  0
    4.1956    5.4234   -1.2103 C   0  0  0  0  0  0  0  0  0  0  0  0
    4.8007    5.7666   -0.0147 C   0  0  0  0  0  0  0  0  0  0  0  0
    4.2192    5.4109    1.1890 C   0  0  0  0  0  0  0  0  0  0  0  0
    3.0290    4.7103    1.2040 C   0  0  0  0  0  0  0  0  0  0  0  0
    2.3008    4.2649    2.7157 Cl  0  0  0  0  0  0  0  0  0  0  0  0
    2.2543    4.2815   -2.7109 Cl  0  0  0  0  0  0  0  0  0  0  0  0
   -4.8205    1.4669    0.0541 N   0  0  0  0  0  0  0  0  0  0  0  0
   -4.8333    0.0019    0.0468 C   0  0  0  0  0  0  0  0  0  0  0  0
   -6.2801   -0.4955    0.0578 C   0  0  0  0  0  0  0  0  0  0  0  0
   -6.2935   -2.0254    0.0502 C   0  0  0  0  0  0  0  0  0  0  0  0
   -7.7403   -2.5229    0.0612 C   0  0  0  0  0  0  0  0  0  0  0  0
   -7.2193   -4.5171   -1.2112 C   0  0  0  0  0  0  0  0  0  0  0  0
   -7.1952   -6.0467   -1.1527 C   0  0  0  0  0  0  0  0  0  0  0  0
   -8.5135   -6.5291   -0.8796 O   0  0  0  0  0  0  0  0  0  0  0  0
   -9.0640   -6.0379    0.3456 C   0  0  0  0  0  0  0  0  0  0  0  0
   -9.1070   -4.5081    0.3023 C   0  0  0  0  0  0  0  0  0  0  0  0
    1.0345   -0.3534   -0.0097 H   0  0  0  0  0  0  0  0  0  0  0  0
   -0.4983   -0.3791    0.8948 H   0  0  0  0  0  0  0  0  0  0  0  0
   -0.5153   -0.3696   -0.8850 H   0  0  0  0  0  0  0  0  0  0  0  0
   -2.4366    0.3525    0.0263 H   0  0  0  0  0  0  0  0  0  0  0  0
   -2.5521    5.2614    0.0521 H   0  0  0  0  0  0  0  0  0  0  0  0
   -0.0780    5.3592    0.0300 H   0  0  0  0  0  0  0  0  0  0  0  0
    4.6545    5.7045   -2.1467 H   0  0  0  0  0  0  0  0  0  0  0  0
    5.7314    6.3144   -0.0210 H   0  0  0  0  0  0  0  0  0  0  0  0
    4.6967    5.6818    2.1190 H   0  0  0  0  0  0  0  0  0  0  0  0
   -5.6562    1.9591    0.0644 H   0  0  0  0  0  0  0  0  0  0  0  0
   -4.3310   -0.3613   -0.8498 H   0  0  0  0  0  0  0  0  0  0  0  0
   -4.3143   -0.3703    0.9301 H   0  0  0  0  0  0  0  0  0  0  0  0
   -6.7824   -0.1322    0.9544 H   0  0  0  0  0  0  0  0  0  0  0  0
   -6.7990   -0.1232   -0.8255 H   0  0  0  0  0  0  0  0  0  0  0  0
   -5.7912   -2.3887   -0.8464 H   0  0  0  0  0  0  0  0  0  0  0  0
   -5.7745   -2.3977    0.9335 H   0  0  0  0  0  0  0  0  0  0  0  0
   -8.2426   -2.1596    0.9578 H   0  0  0  0  0  0  0  0  0  0  0  0
   -8.2592   -2.1506   -0.8221 H   0  0  0  0  0  0  0  0  0  0  0  0
   -7.8544   -4.1943   -2.0362 H   0  0  0  0  0  0  0  0  0  0  0  0
   -6.2068   -4.1426   -1.3624 H   0  0  0  0  0  0  0  0  0  0  0  0
   -6.5182   -6.3701   -0.3621 H   0  0  0  0  0  0  0  0  0  0  0  0
   -6.8539   -6.4422   -2.1094 H   0  0  0  0  0  0  0  0  0  0  0  0
   -8.4413   -6.3610    1.1798 H   0  0  0  0  0  0  0  0  0  0  0  0
  -10.0743   -6.4269    0.4725 H   0  0  0  0  0  0  0  0  0  0  0  0
   -9.4725   -4.1272    1.2559 H   0  0  0  0  0  0  0  0  0  0  0  0
   -9.7723   -4.1852   -0.4985 H   0  0  0  0  0  0  0  0  0  0  0  0
   -3.6891    3.5189    0.0539 N   0  3  0  0  0  0  0  0  0  0  0  0
   -4.5890    4.0130    0.0644 H   0  0  0  0  0  0  0  0  0  0  0  0
   -7.7376   -4.0018    0.0738 N   0  3  0  0  0  0  0  0  0  0  0  0
   -7.1296   -4.3279    0.8342 H   0  0  0  0  0  0  0  0  0  0  0  0
  1  2  1  0  0  0  0
  1 30  1  0  0  0  0
  1 31  1  0  0  0  0
  1 32  1  0  0  0  0
  2 10  1  0  0  0  0
  2  3  1  0  0  0  0
  3  7  2  0  0  0  0
  3  4  1  0  0  0  0
  4  5  2  0  0  0  0
  4 33  1  0  0  0  0
  5 20  1  0  0  0  0
  5 56  1  0  0  0  0
  6  7  1  0  0  0  0
  6 34  1  0  0  0  0
  6 56  2  0  0  0  0
  7  8  1  0  0  0  0
  8  9  2  0  0  0  0
  8 35  1  0  0  0  0
  9 10  1  0  0  0  0
  9 12  1  0  0  0  0
 10 11  2  0  0  0  0
 12 17  2  0  0  0  0
 12 13  1  0  0  0  0
 13 14  2  0  0  0  0
 13 19  1  0  0  0  0
 14 15  1  0  0  0  0
 14 36  1  0  0  0  0
 15 16  2  0  0  0  0
 15 37  1  0  0  0  0
 16 17  1  0  0  0  0
 16 38  1  0  0  0  0
 17 18  1  0  0  0  0
 20 21  1  0  0  0  0
 20 39  1  0  0  0  0
 21 22  1  0  0  0  0
 21 40  1  0  0  0  0
 21 41  1  0  0  0  0
 22 23  1  0  0  0  0
 22 42  1  0  0  0  0
 22 43  1  0  0  0  0
 23 24  1  0  0  0  0
 23 44  1  0  0  0  0
 23 45  1  0  0  0  0
 24 46  1  0  0  0  0
 24 47  1  0  0  0  0
 24 58  1  0  0  0  0
 25 26  1  0  0  0  0
 25 48  1  0  0  0  0
 25 49  1  0  0  0  0
 25 58  1  0  0  0  0
 26 27  1  0  0  0  0
 26 50  1  0  0  0  0
 26 51  1  0  0  0  0
 27 28  1  0  0  0  0
 28 29  1  0  0  0  0
 28 52  1  0  0  0  0
 28 53  1  0  0  0  0
 29 54  1  0  0  0  0
 29 55  1  0  0  0  0
 29 58  1  0  0  0  0
 56 57  1  0  0  0  0
 58 59  1  0  0  0  0
M  CHG  2  56   1  58   1
M  END
$$$$
ZINC03815535
  -OEChem-08230709403D

 65 68  0     0  0  0  0  0  0999 V2000
   -2.2664    2.6406    5.7207 C   0  0  0  0  0  0  0  0  0  0  0  0
   -1.0652    1.8152    5.8687 N   0  0  0  0  0  0  0  0  0  0  0  0
   -0.4094    1.3640    4.7512 C   0  0  0  0  0  0  0  0  0  0  0  0
    0.7497    0.5679    4.8763 C   0  0  0  0  0  0  0  0  0  0  0  0
    1.2453    0.2291    6.1562 C   0  0  0  0  0  0  0  0  0  0  0  0
    0.5843    0.6839    7.2655 C   0  0  0  0  0  0  0  0  0  0  0  0
   -0.6156    1.5073    7.1005 C   0  0  0  0  0  0  0  0  0  0  0  0
   -1.2098    1.9161    8.0821 O   0  0  0  0  0  0  0  0  0  0  0  0
    1.0781    0.3458    8.6209 C   0  0  0  0  0  0  0  0  0  0  0  0
    0.6245   -0.8061    9.2648 C   0  0  0  0  0  0  0  0  0  0  0  0
    1.0925   -1.1181   10.5262 C   0  0  0  0  0  0  0  0  0  0  0  0
    2.0012   -0.2863   11.1554 C   0  0  0  0  0  0  0  0  0  0  0  0
    2.4509    0.8598   10.5247 C   0  0  0  0  0  0  0  0  0  0  0  0
    1.9945    1.1808    9.2613 C   0  0  0  0  0  0  0  0  0  0  0  0
    2.5591    2.6202    8.4720 Cl  0  0  0  0  0  0  0  0  0  0  0  0
   -0.5209   -1.8478    8.4796 Cl  0  0  0  0  0  0  0  0  0  0  0  0
    1.3899    0.1267    3.7087 C   0  0  0  0  0  0  0  0  0  0  0  0
    0.8797    0.4693    2.5405 N   0  0  0  0  0  0  0  0  0  0  0  0
   -0.2103    1.2245    2.4609 C   0  0  0  0  0  0  0  0  0  0  0  0
   -0.8488    1.6644    3.5342 N   0  0  0  0  0  0  0  0  0  0  0  0
   -0.6984    1.5583    1.2133 N   0  0  0  0  0  0  0  0  0  0  0  0
   -0.0127    1.0858    0.0080 C   0  0  0  0  0  0  0  0  0  0  0  0
   -0.7527    1.5927   -1.2315 C   0  0  0  0  0  0  0  0  0  0  0  0
   -0.0366    1.0992   -2.4903 C   0  0  0  0  0  0  0  0  0  0  0  0
   -0.7766    1.6061   -3.7298 C   0  0  0  0  0  0  0  0  0  0  0  0
   -0.0604    1.1126   -4.9886 C   0  0  0  0  0  0  0  0  0  0  0  0
   -2.1059    0.9933   -6.2796 C   0  0  0  0  0  0  0  0  0  0  0  0
   -2.8417    1.5842   -7.4845 C   0  0  0  0  0  0  0  0  0  0  0  0
   -0.7248    1.9407   -8.6026 C   0  0  0  0  0  0  0  0  0  0  0  0
    0.0111    1.3497   -7.3977 C   0  0  0  0  0  0  0  0  0  0  0  0
   -2.7703    1.8213   -9.8936 C   0  0  0  0  0  0  0  0  0  0  0  0
   -3.1464    1.9984    5.6843 H   0  0  0  0  0  0  0  0  0  0  0  0
   -2.3472    3.3201    6.5692 H   0  0  0  0  0  0  0  0  0  0  0  0
   -2.1993    3.2176    4.7983 H   0  0  0  0  0  0  0  0  0  0  0  0
    2.1320   -0.3790    6.2574 H   0  0  0  0  0  0  0  0  0  0  0  0
    0.7451   -2.0112   11.0242 H   0  0  0  0  0  0  0  0  0  0  0  0
    2.3610   -0.5326   12.1435 H   0  0  0  0  0  0  0  0  0  0  0  0
    3.1601    1.5053   11.0215 H   0  0  0  0  0  0  0  0  0  0  0  0
    2.2790   -0.4839    3.7644 H   0  0  0  0  0  0  0  0  0  0  0  0
   -1.4954    2.1056    1.1349 H   0  0  0  0  0  0  0  0  0  0  0  0
    0.0021   -0.0041    0.0020 H   0  0  0  0  0  0  0  0  0  0  0  0
    1.0099    1.4631    0.0003 H   0  0  0  0  0  0  0  0  0  0  0  0
   -1.7753    1.2154   -1.2238 H   0  0  0  0  0  0  0  0  0  0  0  0
   -0.7675    2.6825   -1.2255 H   0  0  0  0  0  0  0  0  0  0  0  0
    0.9860    1.4765   -2.4981 H   0  0  0  0  0  0  0  0  0  0  0  0
   -0.0218    0.0093   -2.4963 H   0  0  0  0  0  0  0  0  0  0  0  0
   -1.7991    1.2288   -3.7221 H   0  0  0  0  0  0  0  0  0  0  0  0
   -0.7913    2.6960   -3.7239 H   0  0  0  0  0  0  0  0  0  0  0  0
    0.9622    1.4899   -4.9964 H   0  0  0  0  0  0  0  0  0  0  0  0
   -0.0456    0.0228   -4.9946 H   0  0  0  0  0  0  0  0  0  0  0  0
   -2.0072   -0.0848   -6.4067 H   0  0  0  0  0  0  0  0  0  0  0  0
   -2.6699    1.2025   -5.3706 H   0  0  0  0  0  0  0  0  0  0  0  0
   -2.9645    2.6582   -7.3447 H   0  0  0  0  0  0  0  0  0  0  0  0
   -3.8212    1.1151   -7.5784 H   0  0  0  0  0  0  0  0  0  0  0  0
   -0.8235    3.0187   -8.4755 H   0  0  0  0  0  0  0  0  0  0  0  0
   -0.1606    1.7318   -9.5115 H   0  0  0  0  0  0  0  0  0  0  0  0
    0.9905    1.8188   -7.3039 H   0  0  0  0  0  0  0  0  0  0  0  0
    0.1338    0.2757   -7.5375 H   0  0  0  0  0  0  0  0  0  0  0  0
   -2.2012    1.5640  -10.7869 H   0  0  0  0  0  0  0  0  0  0  0  0
   -3.7552    1.3570   -9.9439 H   0  0  0  0  0  0  0  0  0  0  0  0
   -2.8816    2.9039   -9.8329 H   0  0  0  0  0  0  0  0  0  0  0  0
   -0.7746    1.6269   -6.1767 N   0  3  0  0  0  0  0  0  0  0  0  0
   -0.8946    2.6421   -6.0803 H   0  0  0  0  0  0  0  0  0  0  0  0
   -2.0563    1.3070   -8.7054 N   0  3  0  0  0  0  0  0  0  0  0  0
   -1.9363    0.2918   -8.8018 H   0  0  0  0  0  0  0  0  0  0  0  0
  1  2  1  0  0  0  0
  1 32  1  0  0  0  0
  1 33  1  0  0  0  0
  1 34  1  0  0  0  0
  2  7  1  0  0  0  0
  2  3  1  0  0  0  0
  3 20  2  0  0  0  0
  3  4  1  0  0  0  0
  4  5  1  0  0  0  0
  4 17  2  0  0  0  0
  5  6  2  0  0  0  0
  5 35  1  0  0  0  0
  6  7  1  0  0  0  0
  6  9  1  0  0  0  0
  7  8  2  0  0  0  0
  9 14  2  0  0  0  0
  9 10  1  0  0  0  0
 10 11  2  0  0  0  0
 10 16  1  0  0  0  0
 11 12  1  0  0  0  0
 11 36  1  0  0  0  0
 12 13  2  0  0  0  0
 12 37  1  0  0  0  0
 13 14  1  0  0  0  0
 13 38  1  0  0  0  0
 14 15  1  0  0  0  0
 17 18  1  0  0  0  0
 17 39  1  0  0  0  0
 18 19  2  0  0  0  0
 19 20  1  0  0  0  0
 19 21  1  0  0  0  0
 21 22  1  0  0  0  0
 21 40  1  0  0  0  0
 22 23  1  0  0  0  0
 22 41  1  0  0  0  0
 22 42  1  0  0  0  0
 23 24  1  0  0  0  0
 23 43  1  0  0  0  0
 23 44  1  0  0  0  0
 24 25  1  0  0  0  0
 24 45  1  0  0  0  0
 24 46  1  0  0  0  0
 25 26  1  0  0  0  0
 25 47  1  0  0  0  0
 25 48  1  0  0  0  0
 26 49  1  0  0  0  0
 26 50  1  0  0  0  0
 26 62  1  0  0  0  0
 27 28  1  0  0  0  0
 27 51  1  0  0  0  0
 27 52  1  0  0  0  0
 27 62  1  0  0  0  0
 28 53  1  0  0  0  0
 28 54  1  0  0  0  0
 28 64  1  0  0  0  0
 29 30  1  0  0  0  0
 29 55  1  0  0  0  0
 29 56  1  0  0  0  0
 29 64  1  0  0  0  0
 30 57  1  0  0  0  0
 30 58  1  0  0  0  0
 30 62  1  0  0  0  0
 31 59  1  0  0  0  0
 31 60  1  0  0  0  0
 31 61  1  0  0  0  0
 31 64  1  0  0  0  0
 62 63  1  0  0  0  0
 64 65  1  0  0  0  0
M  CHG  2  62   1  64   1
M  END
$$$$
ZINC03815536
  -OEChem-08230709403D

 67 70  0     0  0  0  0  0  0999 V2000
    3.4622  -10.1764    0.4623 C   0  0  0  0  0  0  0  0  0  0  0  0
    3.0710   -8.7032    0.5943 C   0  0  0  0  0  0  0  0  0  0  0  0
    1.2360   -8.9043   -0.9724 C   0  0  0  0  0  0  0  0  0  0  0  0
    0.9393   -8.8001   -2.4698 C   0  0  0  0  0  0  0  0  0  0  0  0
    2.3399   -6.7709   -0.6684 C   0  0  0  0  0  0  0  0  0  0  0  0
    3.6996   -6.1003   -0.8747 C   0  0  0  0  0  0  0  0  0  0  0  0
    3.5304   -4.5803   -0.8314 C   0  0  0  0  0  0  0  0  0  0  0  0
    4.8003   -3.9540   -1.0242 O   0  0  0  0  0  0  0  0  0  0  0  0
    4.8261   -2.5944   -1.0133 C   0  0  0  0  0  0  0  0  0  0  0  0
    6.0260   -1.9224   -1.1945 C   0  0  0  0  0  0  0  0  0  0  0  0
    6.0532   -0.5418   -1.1832 C   0  0  0  0  0  0  0  0  0  0  0  0
    4.8787    0.1739   -0.9907 C   0  0  0  0  0  0  0  0  0  0  0  0
    3.6786   -0.4998   -0.8041 C   0  0  0  0  0  0  0  0  0  0  0  0
    3.6525   -1.8803   -0.8205 C   0  0  0  0  0  0  0  0  0  0  0  0
    4.9053    1.5734   -0.9791 N   0  0  0  0  0  0  0  0  0  0  0  0
    5.7426    2.2586   -1.8479 C   0  0  0  0  0  0  0  0  0  0  0  0
    5.8502    3.6387   -1.7428 C   0  0  0  0  0  0  0  0  0  0  0  0
    6.6915    4.3148   -2.6179 C   0  0  0  0  0  0  0  0  0  0  0  0
    7.4024    3.5631   -3.5795 C   0  0  0  0  0  0  0  0  0  0  0  0
    8.2688    4.2171   -4.4871 C   0  0  0  0  0  0  0  0  0  0  0  0
    8.4036    5.5770   -4.4166 C   0  0  0  0  0  0  0  0  0  0  0  0
    7.6463    6.3273   -3.4121 C   0  0  0  0  0  0  0  0  0  0  0  0
    7.7575    7.5387   -3.3484 O   0  0  0  0  0  0  0  0  0  0  0  0
    6.8319    5.6821   -2.5541 N   0  0  0  0  0  0  0  0  0  0  0  0
    6.0855    6.4432   -1.5491 C   0  0  0  0  0  0  0  0  0  0  0  0
    9.3037    6.2867   -5.3552 C   0  0  0  0  0  0  0  0  0  0  0  0
   10.6418    6.4965   -5.0194 C   0  0  0  0  0  0  0  0  0  0  0  0
   11.4772    7.1533   -5.9017 C   0  0  0  0  0  0  0  0  0  0  0  0
   10.9871    7.6133   -7.1107 C   0  0  0  0  0  0  0  0  0  0  0  0
    9.6602    7.4140   -7.4470 C   0  0  0  0  0  0  0  0  0  0  0  0
    8.8157    6.7533   -6.5764 C   0  0  0  0  0  0  0  0  0  0  0  0
    7.1508    6.5042   -7.0004 Cl  0  0  0  0  0  0  0  0  0  0  0  0
   11.2569    5.9267   -3.4993 Cl  0  0  0  0  0  0  0  0  0  0  0  0
    7.2342    2.1736   -3.6158 C   0  0  0  0  0  0  0  0  0  0  0  0
    6.4253    1.5812   -2.7647 N   0  0  0  0  0  0  0  0  0  0  0  0
    3.8804  -10.5273    1.4057 H   0  0  0  0  0  0  0  0  0  0  0  0
    2.5794  -10.7659    0.2146 H   0  0  0  0  0  0  0  0  0  0  0  0
    4.2054  -10.2856   -0.3276 H   0  0  0  0  0  0  0  0  0  0  0  0
    3.9538   -8.1137    0.8420 H   0  0  0  0  0  0  0  0  0  0  0  0
    2.3278   -8.5940    1.3842 H   0  0  0  0  0  0  0  0  0  0  0  0
    1.3068   -9.9542   -0.6883 H   0  0  0  0  0  0  0  0  0  0  0  0
    0.4332   -8.4287   -0.4090 H   0  0  0  0  0  0  0  0  0  0  0  0
    0.9411   -7.7518   -2.7684 H   0  0  0  0  0  0  0  0  0  0  0  0
    1.7034   -9.3389   -3.0300 H   0  0  0  0  0  0  0  0  0  0  0  0
   -0.0382   -9.2354   -2.6776 H   0  0  0  0  0  0  0  0  0  0  0  0
    1.9225   -6.4588    0.2889 H   0  0  0  0  0  0  0  0  0  0  0  0
    1.6646   -6.4778   -1.4722 H   0  0  0  0  0  0  0  0  0  0  0  0
    4.1060   -6.3932   -1.8428 H   0  0  0  0  0  0  0  0  0  0  0  0
    4.3824   -6.4125   -0.0845 H   0  0  0  0  0  0  0  0  0  0  0  0
    3.1240   -4.2874    0.1366 H   0  0  0  0  0  0  0  0  0  0  0  0
    2.8476   -4.2681   -1.6216 H   0  0  0  0  0  0  0  0  0  0  0  0
    6.9392   -2.4791   -1.3442 H   0  0  0  0  0  0  0  0  0  0  0  0
    6.9875   -0.0188   -1.3243 H   0  0  0  0  0  0  0  0  0  0  0  0
    2.7655    0.0560   -0.6499 H   0  0  0  0  0  0  0  0  0  0  0  0
    2.7188   -2.4043   -0.6791 H   0  0  0  0  0  0  0  0  0  0  0  0
    4.3385    2.0642   -0.3637 H   0  0  0  0  0  0  0  0  0  0  0  0
    5.2898    4.1777   -0.9932 H   0  0  0  0  0  0  0  0  0  0  0  0
    8.8166    3.6505   -5.2255 H   0  0  0  0  0  0  0  0  0  0  0  0
    6.6786    6.5211   -0.6379 H   0  0  0  0  0  0  0  0  0  0  0  0
    5.8750    7.4417   -1.9321 H   0  0  0  0  0  0  0  0  0  0  0  0
    5.1477    5.9330   -1.3296 H   0  0  0  0  0  0  0  0  0  0  0  0
   12.5142    7.3121   -5.6451 H   0  0  0  0  0  0  0  0  0  0  0  0
   11.6433    8.1306   -7.7950 H   0  0  0  0  0  0  0  0  0  0  0  0
    9.2838    7.7757   -8.3925 H   0  0  0  0  0  0  0  0  0  0  0  0
    7.7707    1.5859   -4.3460 H   0  0  0  0  0  0  0  0  0  0  0  0
    2.5259   -8.2369   -0.6980 N   0  3  0  0  0  0  0  0  0  0  0  0
    3.1895   -8.4739   -1.4448 H   0  0  0  0  0  0  0  0  0  0  0  0
  1  2  1  0  0  0  0
  1 36  1  0  0  0  0
  1 37  1  0  0  0  0
  1 38  1  0  0  0  0
  2 39  1  0  0  0  0
  2 40  1  0  0  0  0
  2 66  1  0  0  0  0
  3  4  1  0  0  0  0
  3 41  1  0  0  0  0
  3 42  1  0  0  0  0
  3 66  1  0  0  0  0
  4 43  1  0  0  0  0
  4 44  1  0  0  0  0
  4 45  1  0  0  0  0
  5  6  1  0  0  0  0
  5 46  1  0  0  0  0
  5 47  1  0  0  0  0
  5 66  1  0  0  0  0
  6  7  1  0  0  0  0
  6 48  1  0  0  0  0
  6 49  1  0  0  0  0
  7  8  1  0  0  0  0
  7 50  1  0  0  0  0
  7 51  1  0  0  0  0
  8  9  1  0  0  0  0
  9 14  2  0  0  0  0
  9 10  1  0  0  0  0
 10 11  2  0  0  0  0
 10 52  1  0  0  0  0
 11 12  1  0  0  0  0
 11 53  1  0  0  0  0
 12 13  2  0  0  0  0
 12 15  1  0  0  0  0
 13 14  1  0  0  0  0
 13 54  1  0  0  0  0
 14 55  1  0  0  0  0
 15 16  1  0  0  0  0
 15 56  1  0  0  0  0
 16 35  2  0  0  0  0
 16 17  1  0  0  0  0
 17 18  2  0  0  0  0
 17 57  1  0  0  0  0
 18 24  1  0  0  0  0
 18 19  1  0  0  0  0
 19 20  1  0  0  0  0
 19 34  2  0  0  0  0
 20 21  2  0  0  0  0
 20 58  1  0  0  0  0
 21 22  1  0  0  0  0
 21 26  1  0  0  0  0
 22 23  2  0  0  0  0
 22 24  1  0  0  0  0
 24 25  1  0  0  0  0
 25 59  1  0  0  0  0
 25 60  1  0  0  0  0
 25 61  1  0  0  0  0
 26 31  2  0  0  0  0
 26 27  1  0  0  0  0
 27 28  2  0  0  0  0
 27 33  1  0  0  0  0
 28 29  1  0  0  0  0
 28 62  1  0  0  0  0
 29 30  2  0  0  0  0
 29 63  1  0  0  0  0
 30 31  1  0  0  0  0
 30 64  1  0  0  0  0
 31 32  1  0  0  0  0
 34 35  1  0  0  0  0
 34 65  1  0  0  0  0
 66 67  1  0  0  0  0
M  CHG  1  66   1
M  END
$$$$
ZINC03815539
  -OEChem-08230709403D

 54 56  0     0  0  0  0  0  0999 V2000
    8.3808    6.4604   -0.0431 C   0  0  0  0  0  0  0  0  0  0  0  0
    7.1078    5.6539   -0.0353 C   0  0  0  0  0  0  0  0  0  0  0  0
    6.5144    5.2917   -1.2312 C   0  0  0  0  0  0  0  0  0  0  0  0
    5.3491    4.5524   -1.2302 C   0  0  0  0  0  0  0  0  0  0  0  0
    4.7698    4.1711   -0.0210 C   0  0  0  0  0  0  0  0  0  0  0  0
    5.3690    4.5443    1.1810 C   0  0  0  0  0  0  0  0  0  0  0  0
    6.5375    5.2784    1.1677 C   0  0  0  0  0  0  0  0  0  0  0  0
    4.7452    4.1416    2.4924 C   0  0  0  0  0  0  0  0  0  0  0  0
    3.5179    3.3767   -0.0134 C   0  0  0  0  0  0  0  0  0  0  0  0
    3.5691    1.9916   -0.0218 C   0  0  0  0  0  0  0  0  0  0  0  0
    2.3540    1.2879   -0.0135 C   0  0  0  0  0  0  0  0  0  0  0  0
    2.3093   -0.1169   -0.0210 C   0  0  0  0  0  0  0  0  0  0  0  0
    1.1319   -0.7082   -0.0130 N   0  0  0  0  0  0  0  0  0  0  0  0
    0.0021   -0.0041    0.0020 C   0  0  0  0  0  0  0  0  0  0  0  0
   -0.0158    1.3152    0.0093 N   0  0  0  0  0  0  0  0  0  0  0  0
    1.1302    2.0077    0.0020 C   0  0  0  0  0  0  0  0  0  0  0  0
    1.1376    3.3417    0.0091 N   0  0  0  0  0  0  0  0  0  0  0  0
    2.2646    4.0243    0.0020 C   0  0  0  0  0  0  0  0  0  0  0  0
    2.2178    5.4108    0.0104 N   0  0  0  0  0  0  0  0  0  0  0  0
    1.0286    6.0449    0.0255 C   0  0  0  0  0  0  0  0  0  0  0  0
   -0.0031    5.4018    0.0319 O   0  0  0  0  0  0  0  0  0  0  0  0
    0.9831    7.3918    0.0336 N   0  0  0  0  0  0  0  0  0  0  0  0
   -0.3095    8.0810    0.0501 C   0  0  0  0  0  0  0  0  0  0  0  0
   -1.0867    7.6774    1.3047 C   0  0  0  0  0  0  0  0  0  0  0  0
   -0.0809    9.5938    0.0565 C   0  0  0  0  0  0  0  0  0  0  0  0
   -1.1110    7.6916   -1.1936 C   0  0  0  0  0  0  0  0  0  0  0  0
   -1.2015   -0.6829    0.0098 N   0  0  0  0  0  0  0  0  0  0  0  0
    4.7043    4.1576   -2.5339 C   0  0  0  0  0  0  0  0  0  0  0  0
    8.1378    7.5230   -0.0351 H   0  0  0  0  0  0  0  0  0  0  0  0
    8.9712    6.2161    0.8400 H   0  0  0  0  0  0  0  0  0  0  0  0
    8.9542    6.2256   -0.9399 H   0  0  0  0  0  0  0  0  0  0  0  0
    6.9641    5.5876   -2.1675 H   0  0  0  0  0  0  0  0  0  0  0  0
    7.0050    5.5643    2.0983 H   0  0  0  0  0  0  0  0  0  0  0  0
    5.1451    3.1767    2.8038 H   0  0  0  0  0  0  0  0  0  0  0  0
    4.9749    4.8915    3.2494 H   0  0  0  0  0  0  0  0  0  0  0  0
    3.6645    4.0655    2.3726 H   0  0  0  0  0  0  0  0  0  0  0  0
    4.5145    1.4696   -0.0336 H   0  0  0  0  0  0  0  0  0  0  0  0
    3.2193   -0.6983   -0.0328 H   0  0  0  0  0  0  0  0  0  0  0  0
    3.0410    5.9239    0.0053 H   0  0  0  0  0  0  0  0  0  0  0  0
    1.8063    7.9049    0.0285 H   0  0  0  0  0  0  0  0  0  0  0  0
   -0.5157    7.9548    2.1907 H   0  0  0  0  0  0  0  0  0  0  0  0
   -2.0485    8.1902    1.3169 H   0  0  0  0  0  0  0  0  0  0  0  0
   -1.2496    6.5997    1.3001 H   0  0  0  0  0  0  0  0  0  0  0  0
    0.4728    9.8814   -0.8373 H   0  0  0  0  0  0  0  0  0  0  0  0
   -1.0427   10.1066    0.0687 H   0  0  0  0  0  0  0  0  0  0  0  0
    0.4901    9.8713    0.9425 H   0  0  0  0  0  0  0  0  0  0  0  0
   -1.2739    6.6138   -1.1982 H   0  0  0  0  0  0  0  0  0  0  0  0
   -2.0728    8.2044   -1.1814 H   0  0  0  0  0  0  0  0  0  0  0  0
   -0.5573    7.9791   -2.0874 H   0  0  0  0  0  0  0  0  0  0  0  0
   -2.0366   -0.1895    0.0205 H   0  0  0  0  0  0  0  0  0  0  0  0
   -1.2113   -1.6529    0.0047 H   0  0  0  0  0  0  0  0  0  0  0  0
    3.9981    4.9300   -2.8385 H   0  0  0  0  0  0  0  0  0  0  0  0
    5.4720    4.0449   -3.2994 H   0  0  0  0  0  0  0  0  0  0  0  0
    4.1766    3.2124   -2.4067 H   0  0  0  0  0  0  0  0  0  0  0  0
  1  2  1  0  0  0  0
  1 29  1  0  0  0  0
  1 30  1  0  0  0  0
  1 31  1  0  0  0  0
  2  7  2  0  0  0  0
  2  3  1  0  0  0  0
  3  4  2  0  0  0  0
  3 32  1  0  0  0  0
  4  5  1  0  0  0  0
  4 28  1  0  0  0  0
  5  6  2  0  0  0  0
  5  9  1  0  0  0  0
  6  7  1  0  0  0  0
  6  8  1  0  0  0  0
  7 33  1  0  0  0  0
  8 34  1  0  0  0  0
  8 35  1  0  0  0  0
  8 36  1  0  0  0  0
  9 18  2  0  0  0  0
  9 10  1  0  0  0  0
 10 11  2  0  0  0  0
 10 37  1  0  0  0  0
 11 16  1  0  0  0  0
 11 12  1  0  0  0  0
 12 13  2  0  0  0  0
 12 38  1  0  0  0  0
 13 14  1  0  0  0  0
 14 15  2  0  0  0  0
 14 27  1  0  0  0  0
 15 16  1  0  0  0  0
 16 17  2  0  0  0  0
 17 18  1  0  0  0  0
 18 19  1  0  0  0  0
 19 20  1  0  0  0  0
 19 39  1  0  0  0  0
 20 21  2  0  0  0  0
 20 22  1  0  0  0  0
 22 23  1  0  0  0  0
 22 40  1  0  0  0  0
 23 24  1  0  0  0  0
 23 25  1  0  0  0  0
 23 26  1  0  0  0  0
 24 41  1  0  0  0  0
 24 42  1  0  0  0  0
 24 43  1  0  0  0  0
 25 44  1  0  0  0  0
 25 45  1  0  0  0  0
 25 46  1  0  0  0  0
 26 47  1  0  0  0  0
 26 48  1  0  0  0  0
 26 49  1  0  0  0  0
 27 50  1  0  0  0  0
 27 51  1  0  0  0  0
 28 52  1  0  0  0  0
 28 53  1  0  0  0  0
 28 54  1  0  0  0  0
M  END
$$$$
ZINC03815542
  -OEChem-08230709403D

 45 47  0     0  0  0  0  0  0999 V2000
   -4.5493    2.1167   -6.0775 C   0  0  0  0  0  0  0  0  0  0  0  0
   -3.1567    1.4877   -5.9994 C   0  0  0  0  0  0  0  0  0  0  0  0
   -2.2980    2.0049   -7.1553 C   0  0  0  0  0  0  0  0  0  0  0  0
   -3.2785   -0.0344   -6.0957 C   0  0  0  0  0  0  0  0  0  0  0  0
   -2.5290    1.8478   -4.7256 N   0  0  0  0  0  0  0  0  0  0  0  0
   -3.1119    1.4935   -3.5632 C   0  0  0  0  0  0  0  0  0  0  0  0
   -4.1586    0.8752   -3.5717 O   0  0  0  0  0  0  0  0  0  0  0  0
   -2.5345    1.8248   -2.3913 N   0  0  0  0  0  0  0  0  0  0  0  0
   -3.1345    1.4601   -1.1947 C   0  0  0  0  0  0  0  0  0  0  0  0
   -2.5164    1.8149    0.0233 C   0  0  0  0  0  0  0  0  0  0  0  0
   -3.1095    1.4477    1.2206 C   0  0  0  0  0  0  0  0  0  0  0  0
   -4.3206    0.7383    1.1651 C   0  0  0  0  0  0  0  0  0  0  0  0
   -4.9957    0.3297    2.3281 C   0  0  0  0  0  0  0  0  0  0  0  0
   -6.1251   -0.3365    2.1979 N   0  0  0  0  0  0  0  0  0  0  0  0
   -6.6270   -0.6229    0.9986 C   0  0  0  0  0  0  0  0  0  0  0  0
   -6.0365   -0.2645   -0.1256 N   0  0  0  0  0  0  0  0  0  0  0  0
   -4.8838    0.4163   -0.0975 C   0  0  0  0  0  0  0  0  0  0  0  0
   -4.2684    0.7899   -1.2208 N   0  0  0  0  0  0  0  0  0  0  0  0
   -7.8153   -1.3249    0.9281 N   0  0  0  0  0  0  0  0  0  0  0  0
   -1.2399    2.5690    0.0219 C   0  0  0  0  0  0  0  0  0  0  0  0
   -1.2505    3.9636    0.0358 C   0  0  0  0  0  0  0  0  0  0  0  0
   -0.0581    4.6604    0.0277 C   0  0  0  0  0  0  0  0  0  0  0  0
    1.1449    3.9780    0.0125 C   0  0  0  0  0  0  0  0  0  0  0  0
    1.1621    2.5949    0.0049 C   0  0  0  0  0  0  0  0  0  0  0  0
   -0.0236    1.8867    0.0124 C   0  0  0  0  0  0  0  0  0  0  0  0
    0.0021   -0.0041    0.0020 Br  0  0  0  0  0  0  0  0  0  0  0  0
   -2.8941    4.8985    0.0573 Br  0  0  0  0  0  0  0  0  0  0  0  0
   -4.4626    3.2011   -6.0088 H   0  0  0  0  0  0  0  0  0  0  0  0
   -5.0163    1.8488   -7.0252 H   0  0  0  0  0  0  0  0  0  0  0  0
   -5.1611    1.7483   -5.2540 H   0  0  0  0  0  0  0  0  0  0  0  0
   -1.3059    1.5568   -7.0996 H   0  0  0  0  0  0  0  0  0  0  0  0
   -2.7650    1.7370   -8.1030 H   0  0  0  0  0  0  0  0  0  0  0  0
   -2.2113    3.0892   -7.0866 H   0  0  0  0  0  0  0  0  0  0  0  0
   -3.8902   -0.4028   -5.2722 H   0  0  0  0  0  0  0  0  0  0  0  0
   -3.7455   -0.3022   -7.0435 H   0  0  0  0  0  0  0  0  0  0  0  0
   -2.2864   -0.4824   -6.0401 H   0  0  0  0  0  0  0  0  0  0  0  0
   -1.6939    2.3411   -4.7188 H   0  0  0  0  0  0  0  0  0  0  0  0
   -1.6993    2.3181   -2.3845 H   0  0  0  0  0  0  0  0  0  0  0  0
   -2.6565    1.7023    2.1674 H   0  0  0  0  0  0  0  0  0  0  0  0
   -4.5980    0.5567    3.3062 H   0  0  0  0  0  0  0  0  0  0  0  0
   -8.1985   -1.5444    0.0645 H   0  0  0  0  0  0  0  0  0  0  0  0
   -8.2662   -1.5982    1.7423 H   0  0  0  0  0  0  0  0  0  0  0  0
   -0.0650    5.7404    0.0336 H   0  0  0  0  0  0  0  0  0  0  0  0
    2.0747    4.5273    0.0062 H   0  0  0  0  0  0  0  0  0  0  0  0
    2.1046    2.0677   -0.0066 H   0  0  0  0  0  0  0  0  0  0  0  0
  1  2  1  0  0  0  0
  1 28  1  0  0  0  0
  1 29  1  0  0  0  0
  1 30  1  0  0  0  0
  2  3  1  0  0  0  0
  2  4  1  0  0  0  0
  2  5  1  0  0  0  0
  3 31  1  0  0  0  0
  3 32  1  0  0  0  0
  3 33  1  0  0  0  0
  4 34  1  0  0  0  0
  4 35  1  0  0  0  0
  4 36  1  0  0  0  0
  5  6  1  0  0  0  0
  5 37  1  0  0  0  0
  6  7  2  0  0  0  0
  6  8  1  0  0  0  0
  8  9  1  0  0  0  0
  8 38  1  0  0  0  0
  9 18  2  0  0  0  0
  9 10  1  0  0  0  0
 10 11  2  0  0  0  0
 10 20  1  0  0  0  0
 11 12  1  0  0  0  0
 11 39  1  0  0  0  0
 12 17  2  0  0  0  0
 12 13  1  0  0  0  0
 13 14  2  0  0  0  0
 13 40  1  0  0  0  0
 14 15  1  0  0  0  0
 15 16  2  0  0  0  0
 15 19  1  0  0  0  0
 16 17  1  0  0  0  0
 17 18  1  0  0  0  0
 19 41  1  0  0  0  0
 19 42  1  0  0  0  0
 20 25  2  0  0  0  0
 20 21  1  0  0  0  0
 21 22  2  0  0  0  0
 21 27  1  0  0  0  0
 22 23  1  0  0  0  0
 22 43  1  0  0  0  0
 23 24  2  0  0  0  0
 23 44  1  0  0  0  0
 24 25  1  0  0  0  0
 24 45  1  0  0  0  0
 25 26  1  0  0  0  0
M  END
$$$$
ZINC03815543
  -OEChem-08230709403D

 38 41  0     0  0  0  0  0  0999 V2000
   -8.4523    0.3913    6.7310 C   0  0  0  0  0  0  0  0  0  0  0  0
   -7.1405    0.7466    6.9431 C   0  0  0  0  0  0  0  0  0  0  0  0
   -6.2637    0.8751    5.8678 C   0  0  0  0  0  0  0  0  0  0  0  0
   -6.7349    0.6433    4.5650 C   0  0  0  0  0  0  0  0  0  0  0  0
   -8.0548    0.2784    4.3483 C   0  0  0  0  0  0  0  0  0  0  0  0
   -8.9229    0.1537    5.4345 C   0  0  0  0  0  0  0  0  0  0  0  0
  -10.3311   -0.2268    5.2166 C   0  0  0  0  0  0  0  0  0  0  0  0
  -10.7374   -0.4327    4.0901 O   0  0  0  0  0  0  0  0  0  0  0  0
   -5.5804    0.8532    3.6622 C   0  0  0  0  0  0  0  0  0  0  0  0
   -5.5568    0.7364    2.2857 C   0  0  0  0  0  0  0  0  0  0  0  0
   -4.3616    0.9792    1.5778 C   0  0  0  0  0  0  0  0  0  0  0  0
   -3.4384    0.0246    1.1734 C   0  0  0  0  0  0  0  0  0  0  0  0
   -2.4199    0.7006    0.5111 C   0  0  0  0  0  0  0  0  0  0  0  0
   -2.7194    2.0289    0.5168 C   0  0  0  0  0  0  0  0  0  0  0  0
   -3.8958    2.2090    1.1599 N   0  0  0  0  0  0  0  0  0  0  0  0
   -4.3381    3.0603    1.3032 H   0  0  0  0  0  0  0  0  0  0  0  0
   -1.8447    3.0904   -0.1065 C   0  0  0  0  0  0  0  0  0  0  0  0
   -0.4506    2.4955   -0.3372 C   0  0  0  0  0  0  0  0  0  0  0  0
   -0.5803    1.1566   -1.0684 C   0  0  0  0  0  0  0  0  0  0  0  0
   -1.1821    0.1127   -0.1199 C   0  0  0  0  0  0  0  0  0  0  0  0
   -4.4674    1.2189    4.5475 C   0  0  0  0  0  0  0  0  0  0  0  0
   -3.3305    1.4803    4.1969 O   0  0  0  0  0  0  0  0  0  0  0  0
   -4.9222    1.2151    5.8117 N   0  0  0  0  0  0  0  0  0  0  0  0
   -9.1241    0.2948    7.5711 H   0  0  0  0  0  0  0  0  0  0  0  0
   -6.7885    0.9272    7.9480 H   0  0  0  0  0  0  0  0  0  0  0  0
   -8.4106    0.0970    3.3449 H   0  0  0  0  0  0  0  0  0  0  0  0
   -6.4538    0.4591    1.7519 H   0  0  0  0  0  0  0  0  0  0  0  0
   -3.4997   -1.0405    1.3413 H   0  0  0  0  0  0  0  0  0  0  0  0
   -1.7721    3.9463    0.5645 H   0  0  0  0  0  0  0  0  0  0  0  0
   -2.2716    3.4052   -1.0588 H   0  0  0  0  0  0  0  0  0  0  0  0
    0.0408    2.3387    0.6230 H   0  0  0  0  0  0  0  0  0  0  0  0
    0.1422    3.1829   -0.9406 H   0  0  0  0  0  0  0  0  0  0  0  0
   -1.2301    1.2774   -1.9352 H   0  0  0  0  0  0  0  0  0  0  0  0
    0.4048    0.8247   -1.3963 H   0  0  0  0  0  0  0  0  0  0  0  0
   -1.4464   -0.7839   -0.6807 H   0  0  0  0  0  0  0  0  0  0  0  0
   -0.4588   -0.1388    0.6558 H   0  0  0  0  0  0  0  0  0  0  0  0
   -4.3792    1.4244    6.5877 H   0  0  0  0  0  0  0  0  0  0  0  0
  -11.1670   -0.3461    6.2666 O   0  5  0  0  0  0  0  0  0  0  0  0
  1  6  2  0  0  0  0
  1  2  1  0  0  0  0
  1 24  1  0  0  0  0
  2  3  2  0  0  0  0
  2 25  1  0  0  0  0
  3 23  1  0  0  0  0
  3  4  1  0  0  0  0
  4  5  2  0  0  0  0
  4  9  1  0  0  0  0
  5  6  1  0  0  0  0
  5 26  1  0  0  0  0
  6  7  1  0  0  0  0
  7  8  2  0  0  0  0
  7 38  1  0  0  0  0
  9 10  2  0  0  0  0
  9 21  1  0  0  0  0
 10 11  1  0  0  0  0
 10 27  1  0  0  0  0
 11 15  1  0  0  0  0
 11 12  2  0  0  0  0
 12 13  1  0  0  0  0
 12 28  1  0  0  0  0
 13 20  1  0  0  0  0
 13 14  2  0  0  0  0
 14 15  1  0  0  0  0
 14 17  1  0  0  0  0
 15 16  1  0  0  0  0
 17 18  1  0  0  0  0
 17 29  1  0  0  0  0
 17 30  1  0  0  0  0
 18 19  1  0  0  0  0
 18 31  1  0  0  0  0
 18 32  1  0  0  0  0
 19 20  1  0  0  0  0
 19 33  1  0  0  0  0
 19 34  1  0  0  0  0
 20 35  1  0  0  0  0
 20 36  1  0  0  0  0
 21 22  2  0  0  0  0
 21 23  1  0  0  0  0
 23 37  1  0  0  0  0
M  CHG  1  38  -1
M  END
$$$$
ZINC03815545
  -OEChem-08230709403D

 60 63  0     0  0  0  0  0  0999 V2000
    2.5650   -3.0211   -1.9633 C   0  0  0  0  0  0  0  0  0  0  0  0
    1.1279   -3.4878   -2.2038 C   0  0  0  0  0  0  0  0  0  0  0  0
   -1.0941   -2.6109   -2.5995 C   0  0  0  0  0  0  0  0  0  0  0  0
   -0.9453   -2.4469   -4.1134 C   0  0  0  0  0  0  0  0  0  0  0  0
    0.0372   -2.1444   -0.5102 C   0  0  0  0  0  0  0  0  0  0  0  0
    1.1371   -1.3742   -0.0213 O   0  0  0  0  0  0  0  0  0  0  0  0
    1.0934   -0.0318   -0.2333 C   0  0  0  0  0  0  0  0  0  0  0  0
    2.1287    0.7750    0.2154 C   0  0  0  0  0  0  0  0  0  0  0  0
    2.0851    2.1384    0.0005 C   0  0  0  0  0  0  0  0  0  0  0  0
    1.0043    2.7018   -0.6650 C   0  0  0  0  0  0  0  0  0  0  0  0
   -0.0318    1.8934   -1.1139 C   0  0  0  0  0  0  0  0  0  0  0  0
    0.0132    0.5303   -0.8978 C   0  0  0  0  0  0  0  0  0  0  0  0
    0.9590    4.0842   -0.8829 N   0  0  0  0  0  0  0  0  0  0  0  0
    2.1271    4.7868   -1.1057 C   0  0  0  0  0  0  0  0  0  0  0  0
    3.2682    4.1142   -1.2122 N   0  0  0  0  0  0  0  0  0  0  0  0
    4.4114    4.7379   -1.4250 C   0  0  0  0  0  0  0  0  0  0  0  0
    4.4024    6.1367   -1.5382 C   0  0  0  0  0  0  0  0  0  0  0  0
    5.5948    6.8604   -1.7667 C   0  0  0  0  0  0  0  0  0  0  0  0
    5.5340    8.2244   -1.8701 C   0  0  0  0  0  0  0  0  0  0  0  0
    4.2401    8.8980   -1.7420 C   0  0  0  0  0  0  0  0  0  0  0  0
    4.1769   10.1111   -1.8326 O   0  0  0  0  0  0  0  0  0  0  0  0
    3.1196    8.1830   -1.5240 N   0  0  0  0  0  0  0  0  0  0  0  0
    3.1709    6.8160   -1.4194 C   0  0  0  0  0  0  0  0  0  0  0  0
    2.0680    6.1054   -1.2107 N   0  0  0  0  0  0  0  0  0  0  0  0
    1.8330    8.8721   -1.3977 C   0  0  0  0  0  0  0  0  0  0  0  0
    6.7661    9.0116   -2.1099 C   0  0  0  0  0  0  0  0  0  0  0  0
    7.2245    9.9062   -1.1433 C   0  0  0  0  0  0  0  0  0  0  0  0
    8.3758   10.6322   -1.3700 C   0  0  0  0  0  0  0  0  0  0  0  0
    9.0684   10.4829   -2.5582 C   0  0  0  0  0  0  0  0  0  0  0  0
    8.6157    9.6009   -3.5231 C   0  0  0  0  0  0  0  0  0  0  0  0
    7.4689    8.8650   -3.3055 C   0  0  0  0  0  0  0  0  0  0  0  0
    3.2571   -3.8111   -2.2549 H   0  0  0  0  0  0  0  0  0  0  0  0
    2.7614   -2.1285   -2.5572 H   0  0  0  0  0  0  0  0  0  0  0  0
    2.7003   -2.7914   -0.9064 H   0  0  0  0  0  0  0  0  0  0  0  0
    0.8961   -4.3126   -1.5301 H   0  0  0  0  0  0  0  0  0  0  0  0
    1.0221   -3.8212   -3.2362 H   0  0  0  0  0  0  0  0  0  0  0  0
   -1.4335   -3.6222   -2.3752 H   0  0  0  0  0  0  0  0  0  0  0  0
   -1.8231   -1.8918   -2.2260 H   0  0  0  0  0  0  0  0  0  0  0  0
   -1.9018   -2.6469   -4.5963 H   0  0  0  0  0  0  0  0  0  0  0  0
   -0.6303   -1.4281   -4.3392 H   0  0  0  0  0  0  0  0  0  0  0  0
   -0.1978   -3.1487   -4.4832 H   0  0  0  0  0  0  0  0  0  0  0  0
    0.0047   -3.1021    0.0094 H   0  0  0  0  0  0  0  0  0  0  0  0
   -0.8924   -1.6034   -0.3332 H   0  0  0  0  0  0  0  0  0  0  0  0
    2.9690    0.3368    0.7333 H   0  0  0  0  0  0  0  0  0  0  0  0
    2.8891    2.7669    0.3539 H   0  0  0  0  0  0  0  0  0  0  0  0
   -0.8729    2.3308   -1.6312 H   0  0  0  0  0  0  0  0  0  0  0  0
   -0.7927   -0.0985   -1.2465 H   0  0  0  0  0  0  0  0  0  0  0  0
    0.1073    4.5484   -0.8774 H   0  0  0  0  0  0  0  0  0  0  0  0
    5.3343    4.1836   -1.5107 H   0  0  0  0  0  0  0  0  0  0  0  0
    6.5397    6.3453   -1.8579 H   0  0  0  0  0  0  0  0  0  0  0  0
    1.9836    9.9461   -1.5073 H   0  0  0  0  0  0  0  0  0  0  0  0
    1.1541    8.5193   -2.1741 H   0  0  0  0  0  0  0  0  0  0  0  0
    1.4038    8.6636   -0.4177 H   0  0  0  0  0  0  0  0  0  0  0  0
    6.6820   10.0271   -0.2173 H   0  0  0  0  0  0  0  0  0  0  0  0
    8.7343   11.3221   -0.6203 H   0  0  0  0  0  0  0  0  0  0  0  0
    9.9664   11.0569   -2.7331 H   0  0  0  0  0  0  0  0  0  0  0  0
    9.1608    9.4882   -4.4486 H   0  0  0  0  0  0  0  0  0  0  0  0
    7.1164    8.1768   -4.0594 H   0  0  0  0  0  0  0  0  0  0  0  0
    0.2143   -2.3510   -1.9630 N   0  3  0  0  0  0  0  0  0  0  0  0
    0.6222   -1.5027   -2.3732 H   0  0  0  0  0  0  0  0  0  0  0  0
  1  2  1  0  0  0  0
  1 32  1  0  0  0  0
  1 33  1  0  0  0  0
  1 34  1  0  0  0  0
  2 35  1  0  0  0  0
  2 36  1  0  0  0  0
  2 59  1  0  0  0  0
  3  4  1  0  0  0  0
  3 37  1  0  0  0  0
  3 38  1  0  0  0  0
  3 59  1  0  0  0  0
  4 39  1  0  0  0  0
  4 40  1  0  0  0  0
  4 41  1  0  0  0  0
  5  6  1  0  0  0  0
  5 42  1  0  0  0  0
  5 43  1  0  0  0  0
  5 59  1  0  0  0  0
  6  7  1  0  0  0  0
  7 12  2  0  0  0  0
  7  8  1  0  0  0  0
  8  9  2  0  0  0  0
  8 44  1  0  0  0  0
  9 10  1  0  0  0  0
  9 45  1  0  0  0  0
 10 11  2  0  0  0  0
 10 13  1  0  0  0  0
 11 12  1  0  0  0  0
 11 46  1  0  0  0  0
 12 47  1  0  0  0  0
 13 14  1  0  0  0  0
 13 48  1  0  0  0  0
 14 24  2  0  0  0  0
 14 15  1  0  0  0  0
 15 16  2  0  0  0  0
 16 17  1  0  0  0  0
 16 49  1  0  0  0  0
 17 23  2  0  0  0  0
 17 18  1  0  0  0  0
 18 19  2  0  0  0  0
 18 50  1  0  0  0  0
 19 20  1  0  0  0  0
 19 26  1  0  0  0  0
 20 21  2  0  0  0  0
 20 22  1  0  0  0  0
 22 23  1  0  0  0  0
 22 25  1  0  0  0  0
 23 24  1  0  0  0  0
 25 51  1  0  0  0  0
 25 52  1  0  0  0  0
 25 53  1  0  0  0  0
 26 31  2  0  0  0  0
 26 27  1  0  0  0  0
 27 28  2  0  0  0  0
 27 54  1  0  0  0  0
 28 29  1  0  0  0  0
 28 55  1  0  0  0  0
 29 30  2  0  0  0  0
 29 56  1  0  0  0  0
 30 31  1  0  0  0  0
 30 57  1  0  0  0  0
 31 58  1  0  0  0  0
 59 60  1  0  0  0  0
M  CHG  1  59   1
M  END
$$$$
ZINC03815548
  -OEChem-08230709403D

 38 40  0     0  0  0  0  0  0999 V2000
   -3.6392   -2.1996    0.0235 C   0  0  0  0  0  0  0  0  0  0  0  0
   -3.0388   -1.8501    1.2196 C   0  0  0  0  0  0  0  0  0  0  0  0
   -1.8559   -1.1371    1.2197 C   0  0  0  0  0  0  0  0  0  0  0  0
   -1.2668   -0.7689    0.0095 C   0  0  0  0  0  0  0  0  0  0  0  0
   -1.8809   -1.1192   -1.1935 C   0  0  0  0  0  0  0  0  0  0  0  0
   -3.0607   -1.8372   -1.1796 C   0  0  0  0  0  0  0  0  0  0  0  0
   -1.1599   -0.6597   -2.7044 Cl  0  0  0  0  0  0  0  0  0  0  0  0
    0.0021   -0.0041    0.0020 C   0  0  0  0  0  0  0  0  0  0  0  0
    1.2038   -0.6598   -0.0129 C   0  0  0  0  0  0  0  0  0  0  0  0
    2.3976    0.0973   -0.0202 C   0  0  0  0  0  0  0  0  0  0  0  0
    3.6543   -0.5268   -0.0350 C   0  0  0  0  0  0  0  0  0  0  0  0
    4.7354    0.2300   -0.0404 N   0  0  0  0  0  0  0  0  0  0  0  0
    4.6469    1.5558   -0.0329 C   0  0  0  0  0  0  0  0  0  0  0  0
    3.4846    2.1894   -0.0189 N   0  0  0  0  0  0  0  0  0  0  0  0
    2.3442    1.5076   -0.0122 C   0  0  0  0  0  0  0  0  0  0  0  0
    1.1354    2.1562    0.0028 N   0  0  0  0  0  0  0  0  0  0  0  0
   -0.0178    1.4603    0.0101 C   0  0  0  0  0  0  0  0  0  0  0  0
   -1.0826    2.0519    0.0183 O   0  0  0  0  0  0  0  0  0  0  0  0
    1.0984    3.6207    0.0105 C   0  0  0  0  0  0  0  0  0  0  0  0
    1.0990    4.1233    1.4556 C   0  0  0  0  0  0  0  0  0  0  0  0
    1.0604    5.6528    1.4636 C   0  0  0  0  0  0  0  0  0  0  0  0
    1.0610    6.1223    2.8133 O   0  0  0  0  0  0  0  0  0  0  0  0
    5.8098    2.2999   -0.0395 N   0  0  0  0  0  0  0  0  0  0  0  0
   -1.1040   -0.6995    2.7219 Cl  0  0  0  0  0  0  0  0  0  0  0  0
   -4.5640   -2.7574    0.0289 H   0  0  0  0  0  0  0  0  0  0  0  0
   -3.4958   -2.1357    2.1556 H   0  0  0  0  0  0  0  0  0  0  0  0
   -3.5347   -2.1129   -2.1101 H   0  0  0  0  0  0  0  0  0  0  0  0
    1.2392   -1.7392   -0.0187 H   0  0  0  0  0  0  0  0  0  0  0  0
    3.7350   -1.6038   -0.0412 H   0  0  0  0  0  0  0  0  0  0  0  0
    1.9741    4.0090   -0.5096 H   0  0  0  0  0  0  0  0  0  0  0  0
    0.1948    3.9640   -0.4932 H   0  0  0  0  0  0  0  0  0  0  0  0
    0.2233    3.7351    1.9756 H   0  0  0  0  0  0  0  0  0  0  0  0
    2.0026    3.7801    1.9593 H   0  0  0  0  0  0  0  0  0  0  0  0
    1.9361    6.0411    0.9435 H   0  0  0  0  0  0  0  0  0  0  0  0
    0.1568    5.9961    0.9599 H   0  0  0  0  0  0  0  0  0  0  0  0
    1.0373    7.0856    2.8947 H   0  0  0  0  0  0  0  0  0  0  0  0
    5.7656    3.2689   -0.0339 H   0  0  0  0  0  0  0  0  0  0  0  0
    6.6710    1.8537   -0.0498 H   0  0  0  0  0  0  0  0  0  0  0  0
  1  6  2  0  0  0  0
  1  2  1  0  0  0  0
  1 25  1  0  0  0  0
  2  3  2  0  0  0  0
  2 26  1  0  0  0  0
  3  4  1  0  0  0  0
  3 24  1  0  0  0  0
  4  5  2  0  0  0  0
  4  8  1  0  0  0  0
  5  6  1  0  0  0  0
  5  7  1  0  0  0  0
  6 27  1  0  0  0  0
  8 17  1  0  0  0  0
  8  9  2  0  0  0  0
  9 10  1  0  0  0  0
  9 28  1  0  0  0  0
 10 15  2  0  0  0  0
 10 11  1  0  0  0  0
 11 12  2  0  0  0  0
 11 29  1  0  0  0  0
 12 13  1  0  0  0  0
 13 14  2  0  0  0  0
 13 23  1  0  0  0  0
 14 15  1  0  0  0  0
 15 16  1  0  0  0  0
 16 17  1  0  0  0  0
 16 19  1  0  0  0  0
 17 18  2  0  0  0  0
 19 20  1  0  0  0  0
 19 30  1  0  0  0  0
 19 31  1  0  0  0  0
 20 21  1  0  0  0  0
 20 32  1  0  0  0  0
 20 33  1  0  0  0  0
 21 22  1  0  0  0  0
 21 34  1  0  0  0  0
 21 35  1  0  0  0  0
 22 36  1  0  0  0  0
 23 37  1  0  0  0  0
 23 38  1  0  0  0  0
M  END
$$$$
ZINC03815549
  -OEChem-08230709403D

 59 62  0     0  0  0  0  0  0999 V2000
   -0.0127    1.0858    0.0080 C   0  0  0  0  0  0  0  0  0  0  0  0
   -0.6984    1.5583    1.2133 N   0  0  0  0  0  0  0  0  0  0  0  0
    0.0218    1.7881    2.3583 C   0  0  0  0  0  0  0  0  0  0  0  0
   -0.6235    2.2439    3.5282 C   0  0  0  0  0  0  0  0  0  0  0  0
   -2.0194    2.4676    3.5294 C   0  0  0  0  0  0  0  0  0  0  0  0
   -2.7298    2.2356    2.3823 C   0  0  0  0  0  0  0  0  0  0  0  0
   -2.0286    1.7679    1.1846 C   0  0  0  0  0  0  0  0  0  0  0  0
   -2.6522    1.5637    0.1583 O   0  0  0  0  0  0  0  0  0  0  0  0
   -4.1939    2.4601    2.3515 C   0  0  0  0  0  0  0  0  0  0  0  0
   -5.0689    1.4224    2.6753 C   0  0  0  0  0  0  0  0  0  0  0  0
   -6.4326    1.6397    2.6493 C   0  0  0  0  0  0  0  0  0  0  0  0
   -6.9318    2.8795    2.2930 C   0  0  0  0  0  0  0  0  0  0  0  0
   -6.0700    3.9109    1.9658 C   0  0  0  0  0  0  0  0  0  0  0  0
   -4.7041    3.7084    1.9930 C   0  0  0  0  0  0  0  0  0  0  0  0
   -3.6242    5.0039    1.5815 Cl  0  0  0  0  0  0  0  0  0  0  0  0
   -4.4446   -0.1363    3.1163 Cl  0  0  0  0  0  0  0  0  0  0  0  0
    0.1494    2.4670    4.6774 C   0  0  0  0  0  0  0  0  0  0  0  0
    1.4487    2.2418    4.6184 N   0  0  0  0  0  0  0  0  0  0  0  0
    2.0222    1.8129    3.4995 C   0  0  0  0  0  0  0  0  0  0  0  0
    1.3346    1.5883    2.3904 N   0  0  0  0  0  0  0  0  0  0  0  0
    3.3853    1.5938    3.4927 N   0  0  0  0  0  0  0  0  0  0  0  0
    4.1719    1.8338    4.7051 C   0  0  0  0  0  0  0  0  0  0  0  0
    5.6431    1.5165    4.4297 C   0  0  0  0  0  0  0  0  0  0  0  0
    6.4645    1.7672    5.6959 C   0  0  0  0  0  0  0  0  0  0  0  0
    8.0672    0.0284    5.1734 C   0  0  0  0  0  0  0  0  0  0  0  0
    9.5342   -0.2345    4.8251 C   0  0  0  0  0  0  0  0  0  0  0  0
   10.1965    1.6499    6.1923 C   0  0  0  0  0  0  0  0  0  0  0  0
    8.7295    1.9127    6.5407 C   0  0  0  0  0  0  0  0  0  0  0  0
   11.7991   -0.0889    5.6699 C   0  0  0  0  0  0  0  0  0  0  0  0
    0.0021   -0.0041    0.0020 H   0  0  0  0  0  0  0  0  0  0  0  0
    1.0099    1.4631    0.0003 H   0  0  0  0  0  0  0  0  0  0  0  0
   -0.5399    1.4469   -0.8751 H   0  0  0  0  0  0  0  0  0  0  0  0
   -2.5179    2.8160    4.4219 H   0  0  0  0  0  0  0  0  0  0  0  0
   -7.1108    0.8386    2.9036 H   0  0  0  0  0  0  0  0  0  0  0  0
   -7.9991    3.0429    2.2698 H   0  0  0  0  0  0  0  0  0  0  0  0
   -6.4662    4.8765    1.6881 H   0  0  0  0  0  0  0  0  0  0  0  0
   -0.3088    2.8160    5.5909 H   0  0  0  0  0  0  0  0  0  0  0  0
    3.8222    1.2809    2.6851 H   0  0  0  0  0  0  0  0  0  0  0  0
    4.0746    2.8785    5.0004 H   0  0  0  0  0  0  0  0  0  0  0  0
    3.8063    1.1937    5.5080 H   0  0  0  0  0  0  0  0  0  0  0  0
    5.7404    0.4718    4.1343 H   0  0  0  0  0  0  0  0  0  0  0  0
    6.0087    2.1566    3.6267 H   0  0  0  0  0  0  0  0  0  0  0  0
    6.3673    2.8119    5.9912 H   0  0  0  0  0  0  0  0  0  0  0  0
    6.0990    1.1271    6.4988 H   0  0  0  0  0  0  0  0  0  0  0  0
    7.7972   -0.5401    6.0634 H   0  0  0  0  0  0  0  0  0  0  0  0
    7.4350   -0.2781    4.3401 H   0  0  0  0  0  0  0  0  0  0  0  0
    9.7966    0.3126    3.9196 H   0  0  0  0  0  0  0  0  0  0  0  0
    9.6838   -1.3017    4.6614 H   0  0  0  0  0  0  0  0  0  0  0  0
   10.4664    2.2184    5.3024 H   0  0  0  0  0  0  0  0  0  0  0  0
   10.8287    1.9567    7.0255 H   0  0  0  0  0  0  0  0  0  0  0  0
    8.5801    2.9800    6.7041 H   0  0  0  0  0  0  0  0  0  0  0  0
    8.4671    1.3656    7.4461 H   0  0  0  0  0  0  0  0  0  0  0  0
   12.3997    0.1932    6.5346 H   0  0  0  0  0  0  0  0  0  0  0  0
   11.9116   -1.1568    5.4822 H   0  0  0  0  0  0  0  0  0  0  0  0
   12.1342    0.4707    4.7966 H   0  0  0  0  0  0  0  0  0  0  0  0
    7.8854    1.4764    5.4086 N   0  3  0  0  0  0  0  0  0  0  0  0
    8.1670    1.9896    4.5651 H   0  0  0  0  0  0  0  0  0  0  0  0
   10.3782    0.2019    5.9571 N   0  3  0  0  0  0  0  0  0  0  0  0
   10.0966   -0.3112    6.8007 H   0  0  0  0  0  0  0  0  0  0  0  0
  1  2  1  0  0  0  0
  1 30  1  0  0  0  0
  1 31  1  0  0  0  0
  1 32  1  0  0  0  0
  2  7  1  0  0  0  0
  2  3  1  0  0  0  0
  3 20  2  0  0  0  0
  3  4  1  0  0  0  0
  4  5  1  0  0  0  0
  4 17  2  0  0  0  0
  5  6  2  0  0  0  0
  5 33  1  0  0  0  0
  6  7  1  0  0  0  0
  6  9  1  0  0  0  0
  7  8  2  0  0  0  0
  9 14  2  0  0  0  0
  9 10  1  0  0  0  0
 10 11  2  0  0  0  0
 10 16  1  0  0  0  0
 11 12  1  0  0  0  0
 11 34  1  0  0  0  0
 12 13  2  0  0  0  0
 12 35  1  0  0  0  0
 13 14  1  0  0  0  0
 13 36  1  0  0  0  0
 14 15  1  0  0  0  0
 17 18  1  0  0  0  0
 17 37  1  0  0  0  0
 18 19  2  0  0  0  0
 19 20  1  0  0  0  0
 19 21  1  0  0  0  0
 21 22  1  0  0  0  0
 21 38  1  0  0  0  0
 22 23  1  0  0  0  0
 22 39  1  0  0  0  0
 22 40  1  0  0  0  0
 23 24  1  0  0  0  0
 23 41  1  0  0  0  0
 23 42  1  0  0  0  0
 24 43  1  0  0  0  0
 24 44  1  0  0  0  0
 24 56  1  0  0  0  0
 25 26  1  0  0  0  0
 25 45  1  0  0  0  0
 25 46  1  0  0  0  0
 25 56  1  0  0  0  0
 26 47  1  0  0  0  0
 26 48  1  0  0  0  0
 26 58  1  0  0  0  0
 27 28  1  0  0  0  0
 27 49  1  0  0  0  0
 27 50  1  0  0  0  0
 27 58  1  0  0  0  0
 28 51  1  0  0  0  0
 28 52  1  0  0  0  0
 28 56  1  0  0  0  0
 29 53  1  0  0  0  0
 29 54  1  0  0  0  0
 29 55  1  0  0  0  0
 29 58  1  0  0  0  0
 56 57  1  0  0  0  0
 58 59  1  0  0  0  0
M  CHG  2  56   1  58   1
M  END
$$$$
ZINC03815550
  -OEChem-08230709403D

 33 35  0     0  0  0  0  0  0999 V2000
    0.0021   -0.0041    0.0020 C   0  0  0  0  0  0  0  0  0  0  0  0
   -0.0178    1.4608    0.0101 N   0  0  0  0  0  0  0  0  0  0  0  0
   -1.2216    2.1269    0.0194 C   0  0  0  0  0  0  0  0  0  0  0  0
   -2.4255    1.4324    0.0320 C   0  0  0  0  0  0  0  0  0  0  0  0
   -3.6131    2.1500    0.0463 C   0  0  0  0  0  0  0  0  0  0  0  0
   -2.5054    4.1825    0.0466 C   0  0  0  0  0  0  0  0  0  0  0  0
   -1.2621    3.5384    0.0322 C   0  0  0  0  0  0  0  0  0  0  0  0
   -0.0566    4.2794    0.0247 C   0  0  0  0  0  0  0  0  0  0  0  0
    1.1365    3.6096    0.0101 C   0  0  0  0  0  0  0  0  0  0  0  0
    1.1430    2.1450    0.0027 C   0  0  0  0  0  0  0  0  0  0  0  0
    2.2020    1.5430   -0.0099 O   0  0  0  0  0  0  0  0  0  0  0  0
    2.4133    4.3610    0.0015 C   0  0  0  0  0  0  0  0  0  0  0  0
    3.0084    4.7175   -1.2093 C   0  0  0  0  0  0  0  0  0  0  0  0
    4.1956    5.4234   -1.2103 C   0  0  0  0  0  0  0  0  0  0  0  0
    4.8007    5.7666   -0.0147 C   0  0  0  0  0  0  0  0  0  0  0  0
    4.2192    5.4109    1.1890 C   0  0  0  0  0  0  0  0  0  0  0  0
    3.0290    4.7103    1.2040 C   0  0  0  0  0  0  0  0  0  0  0  0
    2.3008    4.2649    2.7157 Cl  0  0  0  0  0  0  0  0  0  0  0  0
    2.2543    4.2815   -2.7109 Cl  0  0  0  0  0  0  0  0  0  0  0  0
   -4.8205    1.4669    0.0541 N   0  0  0  0  0  0  0  0  0  0  0  0
    1.0345   -0.3534   -0.0097 H   0  0  0  0  0  0  0  0  0  0  0  0
   -0.4983   -0.3791    0.8948 H   0  0  0  0  0  0  0  0  0  0  0  0
   -0.5153   -0.3696   -0.8850 H   0  0  0  0  0  0  0  0  0  0  0  0
   -2.4366    0.3525    0.0263 H   0  0  0  0  0  0  0  0  0  0  0  0
   -2.5521    5.2614    0.0521 H   0  0  0  0  0  0  0  0  0  0  0  0
   -0.0780    5.3592    0.0300 H   0  0  0  0  0  0  0  0  0  0  0  0
    4.6545    5.7045   -2.1467 H   0  0  0  0  0  0  0  0  0  0  0  0
    5.7314    6.3144   -0.0210 H   0  0  0  0  0  0  0  0  0  0  0  0
    4.6967    5.6818    2.1190 H   0  0  0  0  0  0  0  0  0  0  0  0
   -5.6562    1.9591    0.0644 H   0  0  0  0  0  0  0  0  0  0  0  0
   -4.8289    0.4969    0.0493 H   0  0  0  0  0  0  0  0  0  0  0  0
   -3.6891    3.5189    0.0539 N   0  3  0  0  0  0  0  0  0  0  0  0
   -4.5890    4.0130    0.0644 H   0  0  0  0  0  0  0  0  0  0  0  0
  1  2  1  0  0  0  0
  1 21  1  0  0  0  0
  1 22  1  0  0  0  0
  1 23  1  0  0  0  0
  2 10  1  0  0  0  0
  2  3  1  0  0  0  0
  3  7  2  0  0  0  0
  3  4  1  0  0  0  0
  4  5  2  0  0  0  0
  4 24  1  0  0  0  0
  5 20  1  0  0  0  0
  5 32  1  0  0  0  0
  6  7  1  0  0  0  0
  6 25  1  0  0  0  0
  6 32  2  0  0  0  0
  7  8  1  0  0  0  0
  8  9  2  0  0  0  0
  8 26  1  0  0  0  0
  9 10  1  0  0  0  0
  9 12  1  0  0  0  0
 10 11  2  0  0  0  0
 12 17  2  0  0  0  0
 12 13  1  0  0  0  0
 13 14  2  0  0  0  0
 13 19  1  0  0  0  0
 14 15  1  0  0  0  0
 14 27  1  0  0  0  0
 15 16  2  0  0  0  0
 15 28  1  0  0  0  0
 16 17  1  0  0  0  0
 16 29  1  0  0  0  0
 17 18  1  0  0  0  0
 20 30  1  0  0  0  0
 20 31  1  0  0  0  0
 32 33  1  0  0  0  0
M  CHG  1  32   1
M  END
$$$$
ZINC03815551
  -OEChem-08230709403D

 64 67  0     0  0  0  0  0  0999 V2000
   10.5426    6.7002   -2.7490 C   0  0  0  0  0  0  0  0  0  0  0  0
   11.3397    5.9980   -1.6479 C   0  0  0  0  0  0  0  0  0  0  0  0
   10.6726    7.7016   -0.0618 C   0  0  0  0  0  0  0  0  0  0  0  0
   12.0877    8.2022    0.2344 C   0  0  0  0  0  0  0  0  0  0  0  0
    9.3671    5.6743   -0.2817 C   0  0  0  0  0  0  0  0  0  0  0  0
    9.4728    4.1488   -0.3335 C   0  0  0  0  0  0  0  0  0  0  0  0
    8.0716    3.5379   -0.2667 C   0  0  0  0  0  0  0  0  0  0  0  0
    8.1704    2.1132   -0.3151 O   0  0  0  0  0  0  0  0  0  0  0  0
    7.0065    1.4116   -0.2654 C   0  0  0  0  0  0  0  0  0  0  0  0
    7.0304    0.0253   -0.3081 C   0  0  0  0  0  0  0  0  0  0  0  0
    5.8490   -0.6879   -0.2582 C   0  0  0  0  0  0  0  0  0  0  0  0
    4.6367   -0.0168   -0.1651 C   0  0  0  0  0  0  0  0  0  0  0  0
    4.6133    1.3713   -0.1281 C   0  0  0  0  0  0  0  0  0  0  0  0
    5.7961    2.0827   -0.1724 C   0  0  0  0  0  0  0  0  0  0  0  0
    3.4386   -0.7390   -0.1143 N   0  0  0  0  0  0  0  0  0  0  0  0
    2.4392   -0.3635    0.7720 C   0  0  0  0  0  0  0  0  0  0  0  0
    2.7008    0.6207    1.7156 C   0  0  0  0  0  0  0  0  0  0  0  0
    1.6927    0.9894    2.5979 C   0  0  0  0  0  0  0  0  0  0  0  0
    0.4413    0.3425    2.4940 C   0  0  0  0  0  0  0  0  0  0  0  0
   -0.6074    0.6874    3.3791 C   0  0  0  0  0  0  0  0  0  0  0  0
   -0.3927    1.6579    4.3196 C   0  0  0  0  0  0  0  0  0  0  0  0
    0.9170    2.3087    4.4007 C   0  0  0  0  0  0  0  0  0  0  0  0
    1.1158    3.1694    5.2395 O   0  0  0  0  0  0  0  0  0  0  0  0
    1.9026    1.9595    3.5509 N   0  0  0  0  0  0  0  0  0  0  0  0
    2.7937    2.4089    3.6133 H   0  0  0  0  0  0  0  0  0  0  0  0
   -1.4756    2.0426    5.2545 C   0  0  0  0  0  0  0  0  0  0  0  0
   -2.3558    3.0729    4.9214 C   0  0  0  0  0  0  0  0  0  0  0  0
   -3.3668    3.4228    5.7949 C   0  0  0  0  0  0  0  0  0  0  0  0
   -3.5011    2.7618    7.0026 C   0  0  0  0  0  0  0  0  0  0  0  0
   -2.6281    1.7438    7.3416 C   0  0  0  0  0  0  0  0  0  0  0  0
   -1.6163    1.3802    6.4746 C   0  0  0  0  0  0  0  0  0  0  0  0
   -0.5218    0.1023    6.9020 Cl  0  0  0  0  0  0  0  0  0  0  0  0
   -2.1849    3.9082    3.4091 Cl  0  0  0  0  0  0  0  0  0  0  0  0
    0.2635   -0.6399    1.5123 C   0  0  0  0  0  0  0  0  0  0  0  0
    1.2503   -0.9526    0.7009 N   0  0  0  0  0  0  0  0  0  0  0  0
    9.4977    6.3954   -2.6918 H   0  0  0  0  0  0  0  0  0  0  0  0
   10.6139    7.7798   -2.6171 H   0  0  0  0  0  0  0  0  0  0  0  0
   10.9484    6.4256   -3.7227 H   0  0  0  0  0  0  0  0  0  0  0  0
   12.3619    6.3765   -1.6417 H   0  0  0  0  0  0  0  0  0  0  0  0
   11.3509    4.9244   -1.8357 H   0  0  0  0  0  0  0  0  0  0  0  0
   10.2733    8.2315   -0.9266 H   0  0  0  0  0  0  0  0  0  0  0  0
   10.0343    7.8840    0.8027 H   0  0  0  0  0  0  0  0  0  0  0  0
   12.0469    9.2484    0.5377 H   0  0  0  0  0  0  0  0  0  0  0  0
   12.5227    7.6078    1.0379 H   0  0  0  0  0  0  0  0  0  0  0  0
   12.7017    8.1072   -0.6612 H   0  0  0  0  0  0  0  0  0  0  0  0
    8.7764    6.0265   -1.1274 H   0  0  0  0  0  0  0  0  0  0  0  0
    8.8842    5.9736    0.6485 H   0  0  0  0  0  0  0  0  0  0  0  0
   10.0634    3.7966    0.5122 H   0  0  0  0  0  0  0  0  0  0  0  0
    9.9557    3.8495   -1.2637 H   0  0  0  0  0  0  0  0  0  0  0  0
    7.4810    3.8901   -1.1124 H   0  0  0  0  0  0  0  0  0  0  0  0
    7.5887    3.8373    0.6635 H   0  0  0  0  0  0  0  0  0  0  0  0
    7.9733   -0.4964   -0.3809 H   0  0  0  0  0  0  0  0  0  0  0  0
    5.8678   -1.7672   -0.2911 H   0  0  0  0  0  0  0  0  0  0  0  0
    3.6707    1.8940   -0.0603 H   0  0  0  0  0  0  0  0  0  0  0  0
    5.7784    3.1620   -0.1392 H   0  0  0  0  0  0  0  0  0  0  0  0
    3.3070   -1.5019   -0.6988 H   0  0  0  0  0  0  0  0  0  0  0  0
    3.6713    1.0921    1.7627 H   0  0  0  0  0  0  0  0  0  0  0  0
   -1.5661    0.1951    3.3098 H   0  0  0  0  0  0  0  0  0  0  0  0
   -4.0515    4.2170    5.5363 H   0  0  0  0  0  0  0  0  0  0  0  0
   -4.2908    3.0420    7.6840 H   0  0  0  0  0  0  0  0  0  0  0  0
   -2.7381    1.2319    8.2862 H   0  0  0  0  0  0  0  0  0  0  0  0
   -0.6879   -1.1427    1.4208 H   0  0  0  0  0  0  0  0  0  0  0  0
   10.7284    6.2483   -0.3256 N   0  3  0  0  0  0  0  0  0  0  0  0
   11.3029    5.7999    0.3977 H   0  0  0  0  0  0  0  0  0  0  0  0
  1  2  1  0  0  0  0
  1 36  1  0  0  0  0
  1 37  1  0  0  0  0
  1 38  1  0  0  0  0
  2 39  1  0  0  0  0
  2 40  1  0  0  0  0
  2 63  1  0  0  0  0
  3  4  1  0  0  0  0
  3 41  1  0  0  0  0
  3 42  1  0  0  0  0
  3 63  1  0  0  0  0
  4 43  1  0  0  0  0
  4 44  1  0  0  0  0
  4 45  1  0  0  0  0
  5  6  1  0  0  0  0
  5 46  1  0  0  0  0
  5 47  1  0  0  0  0
  5 63  1  0  0  0  0
  6  7  1  0  0  0  0
  6 48  1  0  0  0  0
  6 49  1  0  0  0  0
  7  8  1  0  0  0  0
  7 50  1  0  0  0  0
  7 51  1  0  0  0  0
  8  9  1  0  0  0  0
  9 14  2  0  0  0  0
  9 10  1  0  0  0  0
 10 11  2  0  0  0  0
 10 52  1  0  0  0  0
 11 12  1  0  0  0  0
 11 53  1  0  0  0  0
 12 13  2  0  0  0  0
 12 15  1  0  0  0  0
 13 14  1  0  0  0  0
 13 54  1  0  0  0  0
 14 55  1  0  0  0  0
 15 16  1  0  0  0  0
 15 56  1  0  0  0  0
 16 35  2  0  0  0  0
 16 17  1  0  0  0  0
 17 18  2  0  0  0  0
 17 57  1  0  0  0  0
 18 24  1  0  0  0  0
 18 19  1  0  0  0  0
 19 20  1  0  0  0  0
 19 34  2  0  0  0  0
 20 21  2  0  0  0  0
 20 58  1  0  0  0  0
 21 22  1  0  0  0  0
 21 26  1  0  0  0  0
 22 23  2  0  0  0  0
 22 24  1  0  0  0  0
 24 25  1  0  0  0  0
 26 31  2  0  0  0  0
 26 27  1  0  0  0  0
 27 28  2  0  0  0  0
 27 33  1  0  0  0  0
 28 29  1  0  0  0  0
 28 59  1  0  0  0  0
 29 30  2  0  0  0  0
 29 60  1  0  0  0  0
 30 31  1  0  0  0  0
 30 61  1  0  0  0  0
 31 32  1  0  0  0  0
 34 35  1  0  0  0  0
 34 62  1  0  0  0  0
 63 64  1  0  0  0  0
M  CHG  1  63   1
M  END
$$$$
ZINC03815553
  -OEChem-08230709403D

 40 42  0     0  0  0  0  0  0999 V2000
    1.1862    5.6504    1.4655 C   0  0  0  0  0  0  0  0  0  0  0  0
    1.0991    4.1229    1.4563 C   0  0  0  0  0  0  0  0  0  0  0  0
   -0.1910    3.6814    2.1504 C   0  0  0  0  0  0  0  0  0  0  0  0
    1.0982    3.6208    0.0110 C   0  0  0  0  0  0  0  0  0  0  0  0
    1.1353    2.1563    0.0028 N   0  0  0  0  0  0  0  0  0  0  0  0
    2.3442    1.5078   -0.0123 C   0  0  0  0  0  0  0  0  0  0  0  0
    2.3976    0.0971   -0.0204 C   0  0  0  0  0  0  0  0  0  0  0  0
    1.2037   -0.6599   -0.0130 C   0  0  0  0  0  0  0  0  0  0  0  0
    0.0021   -0.0041    0.0020 C   0  0  0  0  0  0  0  0  0  0  0  0
   -0.0178    1.4603    0.0101 C   0  0  0  0  0  0  0  0  0  0  0  0
   -1.0826    2.0518    0.0183 O   0  0  0  0  0  0  0  0  0  0  0  0
   -1.2669   -0.7688    0.0096 C   0  0  0  0  0  0  0  0  0  0  0  0
   -1.8811   -1.1191   -1.1934 C   0  0  0  0  0  0  0  0  0  0  0  0
   -3.0611   -1.8367   -1.1795 C   0  0  0  0  0  0  0  0  0  0  0  0
   -3.6396   -2.1990    0.0237 C   0  0  0  0  0  0  0  0  0  0  0  0
   -3.0388   -1.8500    1.2198 C   0  0  0  0  0  0  0  0  0  0  0  0
   -1.8559   -1.1370    1.2198 C   0  0  0  0  0  0  0  0  0  0  0  0
   -1.1039   -0.6995    2.7220 Cl  0  0  0  0  0  0  0  0  0  0  0  0
   -1.1601   -0.6597   -2.7043 Cl  0  0  0  0  0  0  0  0  0  0  0  0
    3.6539   -0.5268   -0.0352 C   0  0  0  0  0  0  0  0  0  0  0  0
    4.7353    0.2302   -0.0411 N   0  0  0  0  0  0  0  0  0  0  0  0
    4.6469    1.5556   -0.0332 C   0  0  0  0  0  0  0  0  0  0  0  0
    3.4843    2.1894   -0.0191 N   0  0  0  0  0  0  0  0  0  0  0  0
    5.8098    2.2997   -0.0394 N   0  0  0  0  0  0  0  0  0  0  0  0
    0.3286    6.0664    0.9369 H   0  0  0  0  0  0  0  0  0  0  0  0
    1.1869    6.0081    2.4952 H   0  0  0  0  0  0  0  0  0  0  0  0
    2.1053    5.9649    0.9711 H   0  0  0  0  0  0  0  0  0  0  0  0
    1.9568    3.7069    1.9849 H   0  0  0  0  0  0  0  0  0  0  0  0
   -0.2530    2.5932    2.1438 H   0  0  0  0  0  0  0  0  0  0  0  0
   -0.1903    4.0391    3.1800 H   0  0  0  0  0  0  0  0  0  0  0  0
   -1.0486    4.0975    1.6217 H   0  0  0  0  0  0  0  0  0  0  0  0
    1.9738    4.0094   -0.5091 H   0  0  0  0  0  0  0  0  0  0  0  0
    0.1945    3.9643   -0.4923 H   0  0  0  0  0  0  0  0  0  0  0  0
    1.2390   -1.7393   -0.0188 H   0  0  0  0  0  0  0  0  0  0  0  0
   -3.5352   -2.1123   -2.1099 H   0  0  0  0  0  0  0  0  0  0  0  0
   -4.5645   -2.7565    0.0292 H   0  0  0  0  0  0  0  0  0  0  0  0
   -3.4956   -2.1359    2.1558 H   0  0  0  0  0  0  0  0  0  0  0  0
    3.7347   -1.6038   -0.0414 H   0  0  0  0  0  0  0  0  0  0  0  0
    5.7657    3.2687   -0.0334 H   0  0  0  0  0  0  0  0  0  0  0  0
    6.6710    1.8535   -0.0497 H   0  0  0  0  0  0  0  0  0  0  0  0
  1  2  1  0  0  0  0
  1 25  1  0  0  0  0
  1 26  1  0  0  0  0
  1 27  1  0  0  0  0
  2  3  1  0  0  0  0
  2  4  1  0  0  0  0
  2 28  1  0  0  0  0
  3 29  1  0  0  0  0
  3 30  1  0  0  0  0
  3 31  1  0  0  0  0
  4  5  1  0  0  0  0
  4 32  1  0  0  0  0
  4 33  1  0  0  0  0
  5 10  1  0  0  0  0
  5  6  1  0  0  0  0
  6 23  2  0  0  0  0
  6  7  1  0  0  0  0
  7  8  1  0  0  0  0
  7 20  2  0  0  0  0
  8  9  2  0  0  0  0
  8 34  1  0  0  0  0
  9 10  1  0  0  0  0
  9 12  1  0  0  0  0
 10 11  2  0  0  0  0
 12 17  2  0  0  0  0
 12 13  1  0  0  0  0
 13 14  2  0  0  0  0
 13 19  1  0  0  0  0
 14 15  1  0  0  0  0
 14 35  1  0  0  0  0
 15 16  2  0  0  0  0
 15 36  1  0  0  0  0
 16 17  1  0  0  0  0
 16 37  1  0  0  0  0
 17 18  1  0  0  0  0
 20 21  1  0  0  0  0
 20 38  1  0  0  0  0
 21 22  2  0  0  0  0
 22 23  1  0  0  0  0
 22 24  1  0  0  0  0
 24 39  1  0  0  0  0
 24 40  1  0  0  0  0
M  END
$$$$
ZINC03815554
  -OEChem-08230709403D

 37 39  0     0  0  0  0  0  0999 V2000
    1.0604    5.6524    1.4649 C   0  0  0  0  0  0  0  0  0  0  0  0
    1.0991    4.1229    1.4563 C   0  0  0  0  0  0  0  0  0  0  0  0
    1.0982    3.6208    0.0110 C   0  0  0  0  0  0  0  0  0  0  0  0
    1.1353    2.1563    0.0028 N   0  0  0  0  0  0  0  0  0  0  0  0
    2.3442    1.5078   -0.0123 C   0  0  0  0  0  0  0  0  0  0  0  0
    2.3976    0.0971   -0.0204 C   0  0  0  0  0  0  0  0  0  0  0  0
    1.2037   -0.6599   -0.0130 C   0  0  0  0  0  0  0  0  0  0  0  0
    0.0021   -0.0041    0.0020 C   0  0  0  0  0  0  0  0  0  0  0  0
   -0.0178    1.4603    0.0101 C   0  0  0  0  0  0  0  0  0  0  0  0
   -1.0826    2.0518    0.0183 O   0  0  0  0  0  0  0  0  0  0  0  0
   -1.2669   -0.7688    0.0096 C   0  0  0  0  0  0  0  0  0  0  0  0
   -1.8811   -1.1191   -1.1934 C   0  0  0  0  0  0  0  0  0  0  0  0
   -3.0611   -1.8367   -1.1795 C   0  0  0  0  0  0  0  0  0  0  0  0
   -3.6396   -2.1990    0.0237 C   0  0  0  0  0  0  0  0  0  0  0  0
   -3.0388   -1.8500    1.2198 C   0  0  0  0  0  0  0  0  0  0  0  0
   -1.8559   -1.1370    1.2198 C   0  0  0  0  0  0  0  0  0  0  0  0
   -1.1039   -0.6995    2.7220 Cl  0  0  0  0  0  0  0  0  0  0  0  0
   -1.1601   -0.6597   -2.7043 Cl  0  0  0  0  0  0  0  0  0  0  0  0
    3.6539   -0.5268   -0.0352 C   0  0  0  0  0  0  0  0  0  0  0  0
    4.7353    0.2302   -0.0411 N   0  0  0  0  0  0  0  0  0  0  0  0
    4.6469    1.5556   -0.0332 C   0  0  0  0  0  0  0  0  0  0  0  0
    3.4843    2.1894   -0.0191 N   0  0  0  0  0  0  0  0  0  0  0  0
    5.8098    2.2997   -0.0394 N   0  0  0  0  0  0  0  0  0  0  0  0
    1.0610    6.0101    2.4946 H   0  0  0  0  0  0  0  0  0  0  0  0
    1.9360    6.0409    0.9448 H   0  0  0  0  0  0  0  0  0  0  0  0
    0.1566    5.9958    0.9615 H   0  0  0  0  0  0  0  0  0  0  0  0
    0.2236    3.7344    1.9765 H   0  0  0  0  0  0  0  0  0  0  0  0
    2.0029    3.7795    1.9597 H   0  0  0  0  0  0  0  0  0  0  0  0
    1.9738    4.0094   -0.5091 H   0  0  0  0  0  0  0  0  0  0  0  0
    0.1945    3.9643   -0.4923 H   0  0  0  0  0  0  0  0  0  0  0  0
    1.2390   -1.7393   -0.0188 H   0  0  0  0  0  0  0  0  0  0  0  0
   -3.5352   -2.1123   -2.1099 H   0  0  0  0  0  0  0  0  0  0  0  0
   -4.5645   -2.7565    0.0292 H   0  0  0  0  0  0  0  0  0  0  0  0
   -3.4956   -2.1359    2.1558 H   0  0  0  0  0  0  0  0  0  0  0  0
    3.7347   -1.6038   -0.0414 H   0  0  0  0  0  0  0  0  0  0  0  0
    5.7657    3.2687   -0.0334 H   0  0  0  0  0  0  0  0  0  0  0  0
    6.6710    1.8535   -0.0497 H   0  0  0  0  0  0  0  0  0  0  0  0
  1  2  1  0  0  0  0
  1 24  1  0  0  0  0
  1 25  1  0  0  0  0
  1 26  1  0  0  0  0
  2  3  1  0  0  0  0
  2 27  1  0  0  0  0
  2 28  1  0  0  0  0
  3  4  1  0  0  0  0
  3 29  1  0  0  0  0
  3 30  1  0  0  0  0
  4  9  1  0  0  0  0
  4  5  1  0  0  0  0
  5 22  2  0  0  0  0
  5  6  1  0  0  0  0
  6  7  1  0  0  0  0
  6 19  2  0  0  0  0
  7  8  2  0  0  0  0
  7 31  1  0  0  0  0
  8  9  1  0  0  0  0
  8 11  1  0  0  0  0
  9 10  2  0  0  0  0
 11 16  2  0  0  0  0
 11 12  1  0  0  0  0
 12 13  2  0  0  0  0
 12 18  1  0  0  0  0
 13 14  1  0  0  0  0
 13 32  1  0  0  0  0
 14 15  2  0  0  0  0
 14 33  1  0  0  0  0
 15 16  1  0  0  0  0
 15 34  1  0  0  0  0
 16 17  1  0  0  0  0
 19 20  1  0  0  0  0
 19 35  1  0  0  0  0
 20 21  2  0  0  0  0
 21 22  1  0  0  0  0
 21 23  1  0  0  0  0
 23 36  1  0  0  0  0
 23 37  1  0  0  0  0
M  END
$$$$
ZINC03815556
  -OEChem-08230709403D

 44 47  0     0  0  0  0  0  0999 V2000
   -1.0612    5.4742    7.0888 C   0  0  0  0  0  0  0  0  0  0  0  0
   -2.4560    5.0620    7.2641 N   0  0  0  0  0  0  0  0  0  0  0  0
   -3.0219    4.1848    6.3737 C   0  0  0  0  0  0  0  0  0  0  0  0
   -4.3648    3.7774    6.5283 C   0  0  0  0  0  0  0  0  0  0  0  0
   -5.1384    4.2707    7.6036 C   0  0  0  0  0  0  0  0  0  0  0  0
   -4.5651    5.1453    8.4873 C   0  0  0  0  0  0  0  0  0  0  0  0
   -3.1697    5.5475    8.2981 C   0  0  0  0  0  0  0  0  0  0  0  0
   -2.6518    6.3249    9.0799 O   0  0  0  0  0  0  0  0  0  0  0  0
   -5.3495    5.6803    9.6247 C   0  0  0  0  0  0  0  0  0  0  0  0
   -6.0758    6.8630    9.4802 C   0  0  0  0  0  0  0  0  0  0  0  0
   -6.8088    7.3538   10.5430 C   0  0  0  0  0  0  0  0  0  0  0  0
   -6.8159    6.6809   11.7516 C   0  0  0  0  0  0  0  0  0  0  0  0
   -6.0939    5.5108   11.9030 C   0  0  0  0  0  0  0  0  0  0  0  0
   -5.3606    5.0067   10.8467 C   0  0  0  0  0  0  0  0  0  0  0  0
   -4.4542    3.5387   11.0391 Cl  0  0  0  0  0  0  0  0  0  0  0  0
   -6.0629    7.7124    7.9663 Cl  0  0  0  0  0  0  0  0  0  0  0  0
   -4.9055    2.8799    5.5953 C   0  0  0  0  0  0  0  0  0  0  0  0
   -4.1386    2.4569    4.6078 N   0  0  0  0  0  0  0  0  0  0  0  0
   -2.8769    2.8578    4.4967 C   0  0  0  0  0  0  0  0  0  0  0  0
   -2.3228    3.7034    5.3522 N   0  0  0  0  0  0  0  0  0  0  0  0
   -2.1168    2.3794    3.4473 N   0  0  0  0  0  0  0  0  0  0  0  0
   -2.7097    1.5834    2.4589 C   0  0  0  0  0  0  0  0  0  0  0  0
   -4.0688    1.6746    2.2034 C   0  0  0  0  0  0  0  0  0  0  0  0
   -4.6315    0.9267    1.2733 N   0  0  0  0  0  0  0  0  0  0  0  0
   -3.9351    0.0687    0.5525 C   0  0  0  0  0  0  0  0  0  0  0  0
   -2.5750   -0.0779    0.7408 C   0  0  0  0  0  0  0  0  0  0  0  0
   -1.9395    0.6848    1.7145 C   0  0  0  0  0  0  0  0  0  0  0  0
   -0.6043    0.5640    1.9328 O   0  0  0  0  0  0  0  0  0  0  0  0
    0.1025   -0.3793    1.1250 C   0  0  0  0  0  0  0  0  0  0  0  0
   -1.0218    6.3656    6.4627 H   0  0  0  0  0  0  0  0  0  0  0  0
   -0.6222    5.6941    8.0620 H   0  0  0  0  0  0  0  0  0  0  0  0
   -0.5018    4.6698    6.6112 H   0  0  0  0  0  0  0  0  0  0  0  0
   -6.1660    3.9619    7.7265 H   0  0  0  0  0  0  0  0  0  0  0  0
   -7.3744    8.2670   10.4314 H   0  0  0  0  0  0  0  0  0  0  0  0
   -7.3875    7.0711   12.5807 H   0  0  0  0  0  0  0  0  0  0  0  0
   -6.1033    4.9905   12.8493 H   0  0  0  0  0  0  0  0  0  0  0  0
   -5.9290    2.5459    5.6806 H   0  0  0  0  0  0  0  0  0  0  0  0
   -1.1725    2.5948    3.3947 H   0  0  0  0  0  0  0  0  0  0  0  0
   -4.6740    2.3651    2.7720 H   0  0  0  0  0  0  0  0  0  0  0  0
   -4.4353   -0.5240   -0.1991 H   0  0  0  0  0  0  0  0  0  0  0  0
   -2.0127   -0.7794    0.1423 H   0  0  0  0  0  0  0  0  0  0  0  0
   -0.3114   -1.3752    1.2831 H   0  0  0  0  0  0  0  0  0  0  0  0
    1.1570   -0.3760    1.4010 H   0  0  0  0  0  0  0  0  0  0  0  0
    0.0010   -0.1063    0.0746 H   0  0  0  0  0  0  0  0  0  0  0  0
  1  2  1  0  0  0  0
  1 30  1  0  0  0  0
  1 31  1  0  0  0  0
  1 32  1  0  0  0  0
  2  7  1  0  0  0  0
  2  3  1  0  0  0  0
  3 20  2  0  0  0  0
  3  4  1  0  0  0  0
  4  5  1  0  0  0  0
  4 17  2  0  0  0  0
  5  6  2  0  0  0  0
  5 33  1  0  0  0  0
  6  7  1  0  0  0  0
  6  9  1  0  0  0  0
  7  8  2  0  0  0  0
  9 14  2  0  0  0  0
  9 10  1  0  0  0  0
 10 11  2  0  0  0  0
 10 16  1  0  0  0  0
 11 12  1  0  0  0  0
 11 34  1  0  0  0  0
 12 13  2  0  0  0  0
 12 35  1  0  0  0  0
 13 14  1  0  0  0  0
 13 36  1  0  0  0  0
 14 15  1  0  0  0  0
 17 18  1  0  0  0  0
 17 37  1  0  0  0  0
 18 19  2  0  0  0  0
 19 20  1  0  0  0  0
 19 21  1  0  0  0  0
 21 22  1  0  0  0  0
 21 38  1  0  0  0  0
 22 27  2  0  0  0  0
 22 23  1  0  0  0  0
 23 24  2  0  0  0  0
 23 39  1  0  0  0  0
 24 25  1  0  0  0  0
 25 26  2  0  0  0  0
 25 40  1  0  0  0  0
 26 27  1  0  0  0  0
 26 41  1  0  0  0  0
 27 28  1  0  0  0  0
 28 29  1  0  0  0  0
 29 42  1  0  0  0  0
 29 43  1  0  0  0  0
 29 44  1  0  0  0  0
M  END
$$$$
ZINC03815556
  -OEChem-08230709403D

 45 48  0     0  0  0  0  0  0999 V2000
   -1.0612    5.4742    7.0888 C   0  0  0  0  0  0  0  0  0  0  0  0
   -2.4560    5.0620    7.2641 N   0  0  0  0  0  0  0  0  0  0  0  0
   -3.0219    4.1848    6.3737 C   0  0  0  0  0  0  0  0  0  0  0  0
   -4.3648    3.7774    6.5283 C   0  0  0  0  0  0  0  0  0  0  0  0
   -5.1384    4.2707    7.6036 C   0  0  0  0  0  0  0  0  0  0  0  0
   -4.5651    5.1453    8.4873 C   0  0  0  0  0  0  0  0  0  0  0  0
   -3.1697    5.5475    8.2981 C   0  0  0  0  0  0  0  0  0  0  0  0
   -2.6518    6.3249    9.0799 O   0  0  0  0  0  0  0  0  0  0  0  0
   -5.3495    5.6803    9.6247 C   0  0  0  0  0  0  0  0  0  0  0  0
   -6.0758    6.8630    9.4802 C   0  0  0  0  0  0  0  0  0  0  0  0
   -6.8088    7.3538   10.5430 C   0  0  0  0  0  0  0  0  0  0  0  0
   -6.8159    6.6809   11.7516 C   0  0  0  0  0  0  0  0  0  0  0  0
   -6.0939    5.5108   11.9030 C   0  0  0  0  0  0  0  0  0  0  0  0
   -5.3606    5.0067   10.8467 C   0  0  0  0  0  0  0  0  0  0  0  0
   -4.4542    3.5387   11.0391 Cl  0  0  0  0  0  0  0  0  0  0  0  0
   -6.0629    7.7124    7.9663 Cl  0  0  0  0  0  0  0  0  0  0  0  0
   -4.9055    2.8799    5.5953 C   0  0  0  0  0  0  0  0  0  0  0  0
   -4.1386    2.4569    4.6078 N   0  0  0  0  0  0  0  0  0  0  0  0
   -2.8769    2.8578    4.4967 C   0  0  0  0  0  0  0  0  0  0  0  0
   -2.3228    3.7034    5.3522 N   0  0  0  0  0  0  0  0  0  0  0  0
   -2.1168    2.3794    3.4473 N   0  0  0  0  0  0  0  0  0  0  0  0
   -2.7097    1.5834    2.4589 C   0  0  0  0  0  0  0  0  0  0  0  0
   -4.0688    1.6746    2.2034 C   0  0  0  0  0  0  0  0  0  0  0  0
   -3.9351    0.0687    0.5525 C   0  0  0  0  0  0  0  0  0  0  0  0
   -2.5750   -0.0779    0.7408 C   0  0  0  0  0  0  0  0  0  0  0  0
   -1.9395    0.6848    1.7145 C   0  0  0  0  0  0  0  0  0  0  0  0
   -0.6043    0.5640    1.9328 O   0  0  0  0  0  0  0  0  0  0  0  0
    0.1025   -0.3793    1.1250 C   0  0  0  0  0  0  0  0  0  0  0  0
   -1.0218    6.3656    6.4627 H   0  0  0  0  0  0  0  0  0  0  0  0
   -0.6222    5.6941    8.0620 H   0  0  0  0  0  0  0  0  0  0  0  0
   -0.5018    4.6698    6.6112 H   0  0  0  0  0  0  0  0  0  0  0  0
   -6.1660    3.9619    7.7265 H   0  0  0  0  0  0  0  0  0  0  0  0
   -7.3744    8.2670   10.4314 H   0  0  0  0  0  0  0  0  0  0  0  0
   -7.3875    7.0711   12.5807 H   0  0  0  0  0  0  0  0  0  0  0  0
   -6.1033    4.9905   12.8493 H   0  0  0  0  0  0  0  0  0  0  0  0
   -5.9290    2.5459    5.6806 H   0  0  0  0  0  0  0  0  0  0  0  0
   -1.1725    2.5948    3.3947 H   0  0  0  0  0  0  0  0  0  0  0  0
   -4.6740    2.3651    2.7720 H   0  0  0  0  0  0  0  0  0  0  0  0
   -4.4353   -0.5240   -0.1991 H   0  0  0  0  0  0  0  0  0  0  0  0
   -2.0127   -0.7794    0.1423 H   0  0  0  0  0  0  0  0  0  0  0  0
   -0.3114   -1.3752    1.2831 H   0  0  0  0  0  0  0  0  0  0  0  0
    1.1570   -0.3760    1.4010 H   0  0  0  0  0  0  0  0  0  0  0  0
    0.0010   -0.1063    0.0746 H   0  0  0  0  0  0  0  0  0  0  0  0
   -4.7109    0.9336    1.2601 N   0  3  0  0  0  0  0  0  0  0  0  0
   -5.7200    1.0220    1.0924 H   0  0  0  0  0  0  0  0  0  0  0  0
  1  2  1  0  0  0  0
  1 29  1  0  0  0  0
  1 30  1  0  0  0  0
  1 31  1  0  0  0  0
  2  7  1  0  0  0  0
  2  3  1  0  0  0  0
  3 20  2  0  0  0  0
  3  4  1  0  0  0  0
  4  5  1  0  0  0  0
  4 17  2  0  0  0  0
  5  6  2  0  0  0  0
  5 32  1  0  0  0  0
  6  7  1  0  0  0  0
  6  9  1  0  0  0  0
  7  8  2  0  0  0  0
  9 14  2  0  0  0  0
  9 10  1  0  0  0  0
 10 11  2  0  0  0  0
 10 16  1  0  0  0  0
 11 12  1  0  0  0  0
 11 33  1  0  0  0  0
 12 13  2  0  0  0  0
 12 34  1  0  0  0  0
 13 14  1  0  0  0  0
 13 35  1  0  0  0  0
 14 15  1  0  0  0  0
 17 18  1  0  0  0  0
 17 36  1  0  0  0  0
 18 19  2  0  0  0  0
 19 20  1  0  0  0  0
 19 21  1  0  0  0  0
 21 22  1  0  0  0  0
 21 37  1  0  0  0  0
 22 26  2  0  0  0  0
 22 23  1  0  0  0  0
 23 38  1  0  0  0  0
 23 44  2  0  0  0  0
 24 25  2  0  0  0  0
 24 39  1  0  0  0  0
 24 44  1  0  0  0  0
 25 26  1  0  0  0  0
 25 40  1  0  0  0  0
 26 27  1  0  0  0  0
 27 28  1  0  0  0  0
 28 41  1  0  0  0  0
 28 42  1  0  0  0  0
 28 43  1  0  0  0  0
 44 45  1  0  0  0  0
M  CHG  1  44   1
M  END
$$$$
ZINC03815557
  -OEChem-08230709403D

 34 36  0     0  0  0  0  0  0999 V2000
   -1.7150   -0.9970   -1.4288 C   0  0  0  0  0  0  0  0  0  0  0  0
   -1.2609   -0.7464    0.0106 C   0  0  0  0  0  0  0  0  0  0  0  0
    0.0021   -0.0041    0.0020 N   0  0  0  0  0  0  0  0  0  0  0  0
    1.1914   -0.6878   -0.0130 C   0  0  0  0  0  0  0  0  0  0  0  0
    2.4173    0.0122   -0.0210 C   0  0  0  0  0  0  0  0  0  0  0  0
    2.4293    1.4259   -0.0135 C   0  0  0  0  0  0  0  0  0  0  0  0
    1.2376    2.0995    0.0015 C   0  0  0  0  0  0  0  0  0  0  0  0
   -0.0162    1.3427    0.0094 C   0  0  0  0  0  0  0  0  0  0  0  0
   -1.0810    1.9342    0.0177 O   0  0  0  0  0  0  0  0  0  0  0  0
    1.2165    3.5810    0.0102 C   0  0  0  0  0  0  0  0  0  0  0  0
    1.2124    4.2746    1.2210 C   0  0  0  0  0  0  0  0  0  0  0  0
    1.1975    5.6557    1.2220 C   0  0  0  0  0  0  0  0  0  0  0  0
    1.1760    6.3511    0.0264 C   0  0  0  0  0  0  0  0  0  0  0  0
    1.1746    5.6694   -1.1773 C   0  0  0  0  0  0  0  0  0  0  0  0
    1.1947    4.2885   -1.1923 C   0  0  0  0  0  0  0  0  0  0  0  0
    1.1923    3.4349   -2.7040 Cl  0  0  0  0  0  0  0  0  0  0  0  0
    1.2326    3.4037    2.7226 Cl  0  0  0  0  0  0  0  0  0  0  0  0
    3.6108   -0.7247   -0.0368 C   0  0  0  0  0  0  0  0  0  0  0  0
    3.5395   -2.0428   -0.0436 N   0  0  0  0  0  0  0  0  0  0  0  0
    2.3674   -2.6681   -0.0358 C   0  0  0  0  0  0  0  0  0  0  0  0
    1.2151   -2.0159   -0.0209 N   0  0  0  0  0  0  0  0  0  0  0  0
    2.3502   -4.0486   -0.0440 N   0  0  0  0  0  0  0  0  0  0  0  0
   -1.8577   -0.0429   -1.9361 H   0  0  0  0  0  0  0  0  0  0  0  0
   -0.9560   -1.5774   -1.9533 H   0  0  0  0  0  0  0  0  0  0  0  0
   -2.6547   -1.5493   -1.4224 H   0  0  0  0  0  0  0  0  0  0  0  0
   -1.1181   -1.7005    0.5179 H   0  0  0  0  0  0  0  0  0  0  0  0
   -2.0199   -0.1660    0.5352 H   0  0  0  0  0  0  0  0  0  0  0  0
    3.3644    1.9662   -0.0193 H   0  0  0  0  0  0  0  0  0  0  0  0
    1.1985    6.1939    2.1584 H   0  0  0  0  0  0  0  0  0  0  0  0
    1.1599    7.4309    0.0327 H   0  0  0  0  0  0  0  0  0  0  0  0
    1.1581    6.2182   -2.1073 H   0  0  0  0  0  0  0  0  0  0  0  0
    4.5679   -0.2243   -0.0436 H   0  0  0  0  0  0  0  0  0  0  0  0
    1.5041   -4.5231   -0.0389 H   0  0  0  0  0  0  0  0  0  0  0  0
    3.1840   -4.5440   -0.0550 H   0  0  0  0  0  0  0  0  0  0  0  0
  1  2  1  0  0  0  0
  1 23  1  0  0  0  0
  1 24  1  0  0  0  0
  1 25  1  0  0  0  0
  2  3  1  0  0  0  0
  2 26  1  0  0  0  0
  2 27  1  0  0  0  0
  3  8  1  0  0  0  0
  3  4  1  0  0  0  0
  4 21  2  0  0  0  0
  4  5  1  0  0  0  0
  5  6  1  0  0  0  0
  5 18  2  0  0  0  0
  6  7  2  0  0  0  0
  6 28  1  0  0  0  0
  7  8  1  0  0  0  0
  7 10  1  0  0  0  0
  8  9  2  0  0  0  0
 10 15  2  0  0  0  0
 10 11  1  0  0  0  0
 11 12  2  0  0  0  0
 11 17  1  0  0  0  0
 12 13  1  0  0  0  0
 12 29  1  0  0  0  0
 13 14  2  0  0  0  0
 13 30  1  0  0  0  0
 14 15  1  0  0  0  0
 14 31  1  0  0  0  0
 15 16  1  0  0  0  0
 18 19  1  0  0  0  0
 18 32  1  0  0  0  0
 19 20  2  0  0  0  0
 20 21  1  0  0  0  0
 20 22  1  0  0  0  0
 22 33  1  0  0  0  0
 22 34  1  0  0  0  0
M  END
$$$$
ZINC03815558
  -OEChem-08230709403D

 56 59  0     0  0  0  0  0  0999 V2000
    0.0021   -0.0041    0.0020 C   0  0  0  0  0  0  0  0  0  0  0  0
   -0.0178    1.4608    0.0101 N   0  0  0  0  0  0  0  0  0  0  0  0
   -1.2216    2.1269    0.0194 C   0  0  0  0  0  0  0  0  0  0  0  0
   -2.4255    1.4324    0.0320 C   0  0  0  0  0  0  0  0  0  0  0  0
   -3.6131    2.1500    0.0463 C   0  0  0  0  0  0  0  0  0  0  0  0
   -2.5054    4.1825    0.0466 C   0  0  0  0  0  0  0  0  0  0  0  0
   -1.2621    3.5384    0.0322 C   0  0  0  0  0  0  0  0  0  0  0  0
   -0.0566    4.2794    0.0247 C   0  0  0  0  0  0  0  0  0  0  0  0
    1.1365    3.6096    0.0101 C   0  0  0  0  0  0  0  0  0  0  0  0
    1.1430    2.1450    0.0027 C   0  0  0  0  0  0  0  0  0  0  0  0
    2.2020    1.5430   -0.0099 O   0  0  0  0  0  0  0  0  0  0  0  0
    2.4133    4.3610    0.0015 C   0  0  0  0  0  0  0  0  0  0  0  0
    3.0084    4.7175   -1.2093 C   0  0  0  0  0  0  0  0  0  0  0  0
    4.1956    5.4234   -1.2103 C   0  0  0  0  0  0  0  0  0  0  0  0
    4.8007    5.7666   -0.0147 C   0  0  0  0  0  0  0  0  0  0  0  0
    4.2192    5.4109    1.1890 C   0  0  0  0  0  0  0  0  0  0  0  0
    3.0290    4.7103    1.2040 C   0  0  0  0  0  0  0  0  0  0  0  0
    2.3008    4.2649    2.7157 Cl  0  0  0  0  0  0  0  0  0  0  0  0
    2.2543    4.2815   -2.7109 Cl  0  0  0  0  0  0  0  0  0  0  0  0
   -4.8205    1.4669    0.0541 N   0  0  0  0  0  0  0  0  0  0  0  0
   -4.8333    0.0019    0.0468 C   0  0  0  0  0  0  0  0  0  0  0  0
   -6.2801   -0.4955    0.0578 C   0  0  0  0  0  0  0  0  0  0  0  0
   -6.2935   -2.0254    0.0502 C   0  0  0  0  0  0  0  0  0  0  0  0
   -8.3479   -2.1604    1.3262 C   0  0  0  0  0  0  0  0  0  0  0  0
   -9.8065   -2.6224    1.2711 C   0  0  0  0  0  0  0  0  0  0  0  0
   -9.8467   -4.0263    1.0011 O   0  0  0  0  0  0  0  0  0  0  0  0
   -9.2083   -4.3954   -0.2243 C   0  0  0  0  0  0  0  0  0  0  0  0
   -7.7436   -3.9513   -0.1843 C   0  0  0  0  0  0  0  0  0  0  0  0
    1.0345   -0.3534   -0.0097 H   0  0  0  0  0  0  0  0  0  0  0  0
   -0.4983   -0.3791    0.8948 H   0  0  0  0  0  0  0  0  0  0  0  0
   -0.5153   -0.3696   -0.8850 H   0  0  0  0  0  0  0  0  0  0  0  0
   -2.4366    0.3525    0.0263 H   0  0  0  0  0  0  0  0  0  0  0  0
   -2.5521    5.2614    0.0521 H   0  0  0  0  0  0  0  0  0  0  0  0
   -0.0780    5.3592    0.0300 H   0  0  0  0  0  0  0  0  0  0  0  0
    4.6545    5.7045   -2.1467 H   0  0  0  0  0  0  0  0  0  0  0  0
    5.7314    6.3144   -0.0210 H   0  0  0  0  0  0  0  0  0  0  0  0
    4.6967    5.6818    2.1190 H   0  0  0  0  0  0  0  0  0  0  0  0
   -5.6562    1.9591    0.0644 H   0  0  0  0  0  0  0  0  0  0  0  0
   -4.3310   -0.3613   -0.8498 H   0  0  0  0  0  0  0  0  0  0  0  0
   -4.3143   -0.3703    0.9301 H   0  0  0  0  0  0  0  0  0  0  0  0
   -6.7824   -0.1322    0.9544 H   0  0  0  0  0  0  0  0  0  0  0  0
   -6.7990   -0.1232   -0.8255 H   0  0  0  0  0  0  0  0  0  0  0  0
   -5.7912   -2.3887   -0.8464 H   0  0  0  0  0  0  0  0  0  0  0  0
   -5.7745   -2.3977    0.9335 H   0  0  0  0  0  0  0  0  0  0  0  0
   -7.8392   -2.6586    2.1514 H   0  0  0  0  0  0  0  0  0  0  0  0
   -8.3134   -1.0811    1.4749 H   0  0  0  0  0  0  0  0  0  0  0  0
  -10.3290   -2.0845    0.4800 H   0  0  0  0  0  0  0  0  0  0  0  0
  -10.2882   -2.4219    2.2280 H   0  0  0  0  0  0  0  0  0  0  0  0
   -9.7134   -3.9091   -1.0588 H   0  0  0  0  0  0  0  0  0  0  0  0
   -9.2573   -5.4772   -0.3488 H   0  0  0  0  0  0  0  0  0  0  0  0
   -7.2680   -4.1794   -1.1382 H   0  0  0  0  0  0  0  0  0  0  0  0
   -7.2253   -4.4782    0.6168 H   0  0  0  0  0  0  0  0  0  0  0  0
   -3.6891    3.5189    0.0539 N   0  3  0  0  0  0  0  0  0  0  0  0
   -4.5890    4.0130    0.0644 H   0  0  0  0  0  0  0  0  0  0  0  0
   -7.6972   -2.4911    0.0412 N   0  3  0  0  0  0  0  0  0  0  0  0
   -8.2005   -2.0194   -0.7193 H   0  0  0  0  0  0  0  0  0  0  0  0
  1  2  1  0  0  0  0
  1 29  1  0  0  0  0
  1 30  1  0  0  0  0
  1 31  1  0  0  0  0
  2 10  1  0  0  0  0
  2  3  1  0  0  0  0
  3  7  2  0  0  0  0
  3  4  1  0  0  0  0
  4  5  2  0  0  0  0
  4 32  1  0  0  0  0
  5 20  1  0  0  0  0
  5 53  1  0  0  0  0
  6  7  1  0  0  0  0
  6 33  1  0  0  0  0
  6 53  2  0  0  0  0
  7  8  1  0  0  0  0
  8  9  2  0  0  0  0
  8 34  1  0  0  0  0
  9 10  1  0  0  0  0
  9 12  1  0  0  0  0
 10 11  2  0  0  0  0
 12 17  2  0  0  0  0
 12 13  1  0  0  0  0
 13 14  2  0  0  0  0
 13 19  1  0  0  0  0
 14 15  1  0  0  0  0
 14 35  1  0  0  0  0
 15 16  2  0  0  0  0
 15 36  1  0  0  0  0
 16 17  1  0  0  0  0
 16 37  1  0  0  0  0
 17 18  1  0  0  0  0
 20 21  1  0  0  0  0
 20 38  1  0  0  0  0
 21 22  1  0  0  0  0
 21 39  1  0  0  0  0
 21 40  1  0  0  0  0
 22 23  1  0  0  0  0
 22 41  1  0  0  0  0
 22 42  1  0  0  0  0
 23 43  1  0  0  0  0
 23 44  1  0  0  0  0
 23 55  1  0  0  0  0
 24 25  1  0  0  0  0
 24 45  1  0  0  0  0
 24 46  1  0  0  0  0
 24 55  1  0  0  0  0
 25 26  1  0  0  0  0
 25 47  1  0  0  0  0
 25 48  1  0  0  0  0
 26 27  1  0  0  0  0
 27 28  1  0  0  0  0
 27 49  1  0  0  0  0
 27 50  1  0  0  0  0
 28 51  1  0  0  0  0
 28 52  1  0  0  0  0
 28 55  1  0  0  0  0
 53 54  1  0  0  0  0
 55 56  1  0  0  0  0
M  CHG  2  53   1  55   1
M  END
$$$$
ZINC03815559
  -OEChem-08230709403D

 48 50  0     0  0  0  0  0  0999 V2000
   -2.2664    2.6406    5.7207 C   0  0  0  0  0  0  0  0  0  0  0  0
   -1.0652    1.8152    5.8687 N   0  0  0  0  0  0  0  0  0  0  0  0
   -0.4094    1.3640    4.7512 C   0  0  0  0  0  0  0  0  0  0  0  0
    0.7497    0.5679    4.8763 C   0  0  0  0  0  0  0  0  0  0  0  0
    1.2453    0.2291    6.1562 C   0  0  0  0  0  0  0  0  0  0  0  0
    0.5843    0.6839    7.2655 C   0  0  0  0  0  0  0  0  0  0  0  0
   -0.6156    1.5073    7.1005 C   0  0  0  0  0  0  0  0  0  0  0  0
   -1.2098    1.9161    8.0821 O   0  0  0  0  0  0  0  0  0  0  0  0
    1.0781    0.3458    8.6209 C   0  0  0  0  0  0  0  0  0  0  0  0
    0.6245   -0.8061    9.2648 C   0  0  0  0  0  0  0  0  0  0  0  0
    1.0925   -1.1181   10.5262 C   0  0  0  0  0  0  0  0  0  0  0  0
    2.0012   -0.2863   11.1554 C   0  0  0  0  0  0  0  0  0  0  0  0
    2.4509    0.8598   10.5247 C   0  0  0  0  0  0  0  0  0  0  0  0
    1.9945    1.1808    9.2613 C   0  0  0  0  0  0  0  0  0  0  0  0
    2.5591    2.6202    8.4720 Cl  0  0  0  0  0  0  0  0  0  0  0  0
   -0.5209   -1.8478    8.4796 Cl  0  0  0  0  0  0  0  0  0  0  0  0
    1.3899    0.1267    3.7087 C   0  0  0  0  0  0  0  0  0  0  0  0
    0.8797    0.4693    2.5405 N   0  0  0  0  0  0  0  0  0  0  0  0
   -0.2103    1.2245    2.4609 C   0  0  0  0  0  0  0  0  0  0  0  0
   -0.8488    1.6644    3.5342 N   0  0  0  0  0  0  0  0  0  0  0  0
   -0.6984    1.5583    1.2133 N   0  0  0  0  0  0  0  0  0  0  0  0
   -0.0127    1.0858    0.0080 C   0  0  0  0  0  0  0  0  0  0  0  0
   -0.7527    1.5927   -1.2315 C   0  0  0  0  0  0  0  0  0  0  0  0
   -0.0366    1.0992   -2.4903 C   0  0  0  0  0  0  0  0  0  0  0  0
   -0.7766    1.6061   -3.7298 C   0  0  0  0  0  0  0  0  0  0  0  0
   -0.0604    1.1126   -4.9886 C   0  0  0  0  0  0  0  0  0  0  0  0
   -0.7893    1.6119   -6.2095 C   0  0  0  0  0  0  0  0  0  0  0  0
   -1.7799    2.2925   -6.0856 O   0  0  0  0  0  0  0  0  0  0  0  0
   -3.1464    1.9984    5.6843 H   0  0  0  0  0  0  0  0  0  0  0  0
   -2.3472    3.3201    6.5692 H   0  0  0  0  0  0  0  0  0  0  0  0
   -2.1993    3.2176    4.7983 H   0  0  0  0  0  0  0  0  0  0  0  0
    2.1320   -0.3790    6.2574 H   0  0  0  0  0  0  0  0  0  0  0  0
    0.7451   -2.0112   11.0242 H   0  0  0  0  0  0  0  0  0  0  0  0
    2.3610   -0.5326   12.1435 H   0  0  0  0  0  0  0  0  0  0  0  0
    3.1601    1.5053   11.0215 H   0  0  0  0  0  0  0  0  0  0  0  0
    2.2790   -0.4839    3.7644 H   0  0  0  0  0  0  0  0  0  0  0  0
   -1.4954    2.1056    1.1349 H   0  0  0  0  0  0  0  0  0  0  0  0
    0.0021   -0.0041    0.0020 H   0  0  0  0  0  0  0  0  0  0  0  0
    1.0099    1.4631    0.0003 H   0  0  0  0  0  0  0  0  0  0  0  0
   -1.7753    1.2154   -1.2238 H   0  0  0  0  0  0  0  0  0  0  0  0
   -0.7675    2.6825   -1.2255 H   0  0  0  0  0  0  0  0  0  0  0  0
    0.9860    1.4765   -2.4981 H   0  0  0  0  0  0  0  0  0  0  0  0
   -0.0218    0.0093   -2.4963 H   0  0  0  0  0  0  0  0  0  0  0  0
   -1.7991    1.2288   -3.7221 H   0  0  0  0  0  0  0  0  0  0  0  0
   -0.7913    2.6960   -3.7239 H   0  0  0  0  0  0  0  0  0  0  0  0
    0.9622    1.4899   -4.9964 H   0  0  0  0  0  0  0  0  0  0  0  0
   -0.0456    0.0228   -4.9946 H   0  0  0  0  0  0  0  0  0  0  0  0
   -0.3380    1.3004   -7.4347 O   0  5  0  0  0  0  0  0  0  0  0  0
  1  2  1  0  0  0  0
  1 29  1  0  0  0  0
  1 30  1  0  0  0  0
  1 31  1  0  0  0  0
  2  7  1  0  0  0  0
  2  3  1  0  0  0  0
  3 20  2  0  0  0  0
  3  4  1  0  0  0  0
  4  5  1  0  0  0  0
  4 17  2  0  0  0  0
  5  6  2  0  0  0  0
  5 32  1  0  0  0  0
  6  7  1  0  0  0  0
  6  9  1  0  0  0  0
  7  8  2  0  0  0  0
  9 14  2  0  0  0  0
  9 10  1  0  0  0  0
 10 11  2  0  0  0  0
 10 16  1  0  0  0  0
 11 12  1  0  0  0  0
 11 33  1  0  0  0  0
 12 13  2  0  0  0  0
 12 34  1  0  0  0  0
 13 14  1  0  0  0  0
 13 35  1  0  0  0  0
 14 15  1  0  0  0  0
 17 18  1  0  0  0  0
 17 36  1  0  0  0  0
 18 19  2  0  0  0  0
 19 20  1  0  0  0  0
 19 21  1  0  0  0  0
 21 22  1  0  0  0  0
 21 37  1  0  0  0  0
 22 23  1  0  0  0  0
 22 38  1  0  0  0  0
 22 39  1  0  0  0  0
 23 24  1  0  0  0  0
 23 40  1  0  0  0  0
 23 41  1  0  0  0  0
 24 25  1  0  0  0  0
 24 42  1  0  0  0  0
 24 43  1  0  0  0  0
 25 26  1  0  0  0  0
 25 44  1  0  0  0  0
 25 45  1  0  0  0  0
 26 27  1  0  0  0  0
 26 46  1  0  0  0  0
 26 47  1  0  0  0  0
 27 28  2  0  0  0  0
 27 48  1  0  0  0  0
M  CHG  1  48  -1
M  END
$$$$
ZINC03815560
  -OEChem-08230709403D

 40 42  0     0  0  0  0  0  0999 V2000
    1.0613    6.1545    2.9102 C   0  0  0  0  0  0  0  0  0  0  0  0
    1.0604    5.6524    1.4649 C   0  0  0  0  0  0  0  0  0  0  0  0
    1.0991    4.1229    1.4563 C   0  0  0  0  0  0  0  0  0  0  0  0
    1.0982    3.6208    0.0110 C   0  0  0  0  0  0  0  0  0  0  0  0
    1.1353    2.1563    0.0028 N   0  0  0  0  0  0  0  0  0  0  0  0
    2.3442    1.5078   -0.0123 C   0  0  0  0  0  0  0  0  0  0  0  0
    2.3976    0.0971   -0.0204 C   0  0  0  0  0  0  0  0  0  0  0  0
    1.2037   -0.6599   -0.0130 C   0  0  0  0  0  0  0  0  0  0  0  0
    0.0021   -0.0041    0.0020 C   0  0  0  0  0  0  0  0  0  0  0  0
   -0.0178    1.4603    0.0101 C   0  0  0  0  0  0  0  0  0  0  0  0
   -1.0826    2.0518    0.0183 O   0  0  0  0  0  0  0  0  0  0  0  0
   -1.2669   -0.7688    0.0096 C   0  0  0  0  0  0  0  0  0  0  0  0
   -1.8811   -1.1191   -1.1934 C   0  0  0  0  0  0  0  0  0  0  0  0
   -3.0611   -1.8367   -1.1795 C   0  0  0  0  0  0  0  0  0  0  0  0
   -3.6396   -2.1990    0.0237 C   0  0  0  0  0  0  0  0  0  0  0  0
   -3.0388   -1.8500    1.2198 C   0  0  0  0  0  0  0  0  0  0  0  0
   -1.8559   -1.1370    1.2198 C   0  0  0  0  0  0  0  0  0  0  0  0
   -1.1039   -0.6995    2.7220 Cl  0  0  0  0  0  0  0  0  0  0  0  0
   -1.1601   -0.6597   -2.7043 Cl  0  0  0  0  0  0  0  0  0  0  0  0
    3.6539   -0.5268   -0.0352 C   0  0  0  0  0  0  0  0  0  0  0  0
    4.7353    0.2302   -0.0411 N   0  0  0  0  0  0  0  0  0  0  0  0
    4.6469    1.5556   -0.0332 C   0  0  0  0  0  0  0  0  0  0  0  0
    3.4843    2.1894   -0.0191 N   0  0  0  0  0  0  0  0  0  0  0  0
    5.8098    2.2997   -0.0394 N   0  0  0  0  0  0  0  0  0  0  0  0
    1.0337    7.2441    2.9163 H   0  0  0  0  0  0  0  0  0  0  0  0
    0.1857    5.7659    3.4303 H   0  0  0  0  0  0  0  0  0  0  0  0
    1.9650    5.8110    3.4136 H   0  0  0  0  0  0  0  0  0  0  0  0
    1.9360    6.0409    0.9448 H   0  0  0  0  0  0  0  0  0  0  0  0
    0.1566    5.9958    0.9615 H   0  0  0  0  0  0  0  0  0  0  0  0
    0.2236    3.7344    1.9765 H   0  0  0  0  0  0  0  0  0  0  0  0
    2.0029    3.7795    1.9597 H   0  0  0  0  0  0  0  0  0  0  0  0
    1.9738    4.0094   -0.5091 H   0  0  0  0  0  0  0  0  0  0  0  0
    0.1945    3.9643   -0.4923 H   0  0  0  0  0  0  0  0  0  0  0  0
    1.2390   -1.7393   -0.0188 H   0  0  0  0  0  0  0  0  0  0  0  0
   -3.5352   -2.1123   -2.1099 H   0  0  0  0  0  0  0  0  0  0  0  0
   -4.5645   -2.7565    0.0292 H   0  0  0  0  0  0  0  0  0  0  0  0
   -3.4956   -2.1359    2.1558 H   0  0  0  0  0  0  0  0  0  0  0  0
    3.7347   -1.6038   -0.0414 H   0  0  0  0  0  0  0  0  0  0  0  0
    5.7657    3.2687   -0.0334 H   0  0  0  0  0  0  0  0  0  0  0  0
    6.6710    1.8535   -0.0497 H   0  0  0  0  0  0  0  0  0  0  0  0
  1  2  1  0  0  0  0
  1 25  1  0  0  0  0
  1 26  1  0  0  0  0
  1 27  1  0  0  0  0
  2  3  1  0  0  0  0
  2 28  1  0  0  0  0
  2 29  1  0  0  0  0
  3  4  1  0  0  0  0
  3 30  1  0  0  0  0
  3 31  1  0  0  0  0
  4  5  1  0  0  0  0
  4 32  1  0  0  0  0
  4 33  1  0  0  0  0
  5 10  1  0  0  0  0
  5  6  1  0  0  0  0
  6 23  2  0  0  0  0
  6  7  1  0  0  0  0
  7  8  1  0  0  0  0
  7 20  2  0  0  0  0
  8  9  2  0  0  0  0
  8 34  1  0  0  0  0
  9 10  1  0  0  0  0
  9 12  1  0  0  0  0
 10 11  2  0  0  0  0
 12 17  2  0  0  0  0
 12 13  1  0  0  0  0
 13 14  2  0  0  0  0
 13 19  1  0  0  0  0
 14 15  1  0  0  0  0
 14 35  1  0  0  0  0
 15 16  2  0  0  0  0
 15 36  1  0  0  0  0
 16 17  1  0  0  0  0
 16 37  1  0  0  0  0
 17 18  1  0  0  0  0
 20 21  1  0  0  0  0
 20 38  1  0  0  0  0
 21 22  2  0  0  0  0
 22 23  1  0  0  0  0
 22 24  1  0  0  0  0
 24 39  1  0  0  0  0
 24 40  1  0  0  0  0
M  END
$$$$
ZINC03815564
  -OEChem-08230709403D

 40 43  0     0  0  0  0  0  0999 V2000
   -0.0556    4.2475    0.0250 C   0  0  0  0  0  0  0  0  0  0  0  0
    1.1533    3.5753    0.0103 C   0  0  0  0  0  0  0  0  0  0  0  0
    1.1790    2.1944    0.0026 C   0  0  0  0  0  0  0  0  0  0  0  0
   -0.0180    1.4774    0.0102 C   0  0  0  0  0  0  0  0  0  0  0  0
   -1.2341    2.1616    0.0196 C   0  0  0  0  0  0  0  0  0  0  0  0
   -1.2458    3.5427    0.0322 C   0  0  0  0  0  0  0  0  0  0  0  0
   -2.7289    1.2789    0.0213 Cl  0  0  0  0  0  0  0  0  0  0  0  0
    0.0021   -0.0041    0.0020 C   0  0  0  0  0  0  0  0  0  0  0  0
    0.0284   -0.7010    1.1802 C   0  0  0  0  0  0  0  0  0  0  0  0
    0.0415   -2.1140    1.1403 C   0  0  0  0  0  0  0  0  0  0  0  0
    0.0635   -2.8746    2.3193 C   0  0  0  0  0  0  0  0  0  0  0  0
    0.0809   -4.1906    2.2218 N   0  0  0  0  0  0  0  0  0  0  0  0
    0.0778   -4.7927    1.0374 C   0  0  0  0  0  0  0  0  0  0  0  0
    0.0574   -4.1181   -0.1015 N   0  0  0  0  0  0  0  0  0  0  0  0
    0.0390   -2.7896   -0.0989 C   0  0  0  0  0  0  0  0  0  0  0  0
    0.0182   -2.0828   -1.2745 N   0  0  0  0  0  0  0  0  0  0  0  0
    0.0000   -0.7361   -1.2664 C   0  0  0  0  0  0  0  0  0  0  0  0
   -0.0187   -0.1239   -2.3194 O   0  0  0  0  0  0  0  0  0  0  0  0
    0.0164   -2.8002   -2.5519 C   0  0  0  0  0  0  0  0  0  0  0  0
    1.4364   -3.0270   -3.0027 C   0  0  0  0  0  0  0  0  0  0  0  0
    2.0838   -2.0981   -3.8030 C   0  0  0  0  0  0  0  0  0  0  0  0
    3.3876   -2.3381   -4.1935 C   0  0  0  0  0  0  0  0  0  0  0  0
    4.0114   -3.4388   -3.8216 N   0  0  0  0  0  0  0  0  0  0  0  0
    3.4254   -4.3459   -3.0648 C   0  0  0  0  0  0  0  0  0  0  0  0
    2.1245   -4.1721   -2.6319 C   0  0  0  0  0  0  0  0  0  0  0  0
    0.0962   -6.1725    0.9927 N   0  0  0  0  0  0  0  0  0  0  0  0
    2.6972    1.3528   -0.0171 Cl  0  0  0  0  0  0  0  0  0  0  0  0
   -0.0702    5.3274    0.0307 H   0  0  0  0  0  0  0  0  0  0  0  0
    2.0790    4.1315    0.0044 H   0  0  0  0  0  0  0  0  0  0  0  0
   -2.1863    4.0735    0.0433 H   0  0  0  0  0  0  0  0  0  0  0  0
    0.0352   -0.1792    2.1257 H   0  0  0  0  0  0  0  0  0  0  0  0
    0.0657   -2.3932    3.2861 H   0  0  0  0  0  0  0  0  0  0  0  0
   -0.4834   -3.7610   -2.4282 H   0  0  0  0  0  0  0  0  0  0  0  0
   -0.5123   -2.2093   -3.2997 H   0  0  0  0  0  0  0  0  0  0  0  0
    1.5767   -1.1969   -4.1146 H   0  0  0  0  0  0  0  0  0  0  0  0
    3.9000   -1.6179   -4.8141 H   0  0  0  0  0  0  0  0  0  0  0  0
    3.9683   -5.2351   -2.7804 H   0  0  0  0  0  0  0  0  0  0  0  0
    1.6498   -4.9190   -2.0128 H   0  0  0  0  0  0  0  0  0  0  0  0
    0.1109   -6.6842    1.8166 H   0  0  0  0  0  0  0  0  0  0  0  0
    0.0943   -6.6301    0.1375 H   0  0  0  0  0  0  0  0  0  0  0  0
  1  6  2  0  0  0  0
  1  2  1  0  0  0  0
  1 28  1  0  0  0  0
  2  3  2  0  0  0  0
  2 29  1  0  0  0  0
  3  4  1  0  0  0  0
  3 27  1  0  0  0  0
  4  5  2  0  0  0  0
  4  8  1  0  0  0  0
  5  6  1  0  0  0  0
  5  7  1  0  0  0  0
  6 30  1  0  0  0  0
  8 17  1  0  0  0  0
  8  9  2  0  0  0  0
  9 10  1  0  0  0  0
  9 31  1  0  0  0  0
 10 15  2  0  0  0  0
 10 11  1  0  0  0  0
 11 12  2  0  0  0  0
 11 32  1  0  0  0  0
 12 13  1  0  0  0  0
 13 14  2  0  0  0  0
 13 26  1  0  0  0  0
 14 15  1  0  0  0  0
 15 16  1  0  0  0  0
 16 17  1  0  0  0  0
 16 19  1  0  0  0  0
 17 18  2  0  0  0  0
 19 20  1  0  0  0  0
 19 33  1  0  0  0  0
 19 34  1  0  0  0  0
 20 25  2  0  0  0  0
 20 21  1  0  0  0  0
 21 22  2  0  0  0  0
 21 35  1  0  0  0  0
 22 23  1  0  0  0  0
 22 36  1  0  0  0  0
 23 24  2  0  0  0  0
 24 25  1  0  0  0  0
 24 37  1  0  0  0  0
 25 38  1  0  0  0  0
 26 39  1  0  0  0  0
 26 40  1  0  0  0  0
M  END
$$$$
ZINC03815567
  -OEChem-08230709403D

 46 48  0     0  0  0  0  0  0999 V2000
    2.3295    5.8132    3.5207 C   0  0  0  0  0  0  0  0  0  0  0  0
    0.7870    7.5765    2.9091 C   0  0  0  0  0  0  0  0  0  0  0  0
    1.0604    5.6524    1.4649 C   0  0  0  0  0  0  0  0  0  0  0  0
    1.0991    4.1229    1.4563 C   0  0  0  0  0  0  0  0  0  0  0  0
    1.0982    3.6208    0.0110 C   0  0  0  0  0  0  0  0  0  0  0  0
    1.1353    2.1563    0.0028 N   0  0  0  0  0  0  0  0  0  0  0  0
    2.3442    1.5078   -0.0123 C   0  0  0  0  0  0  0  0  0  0  0  0
    2.3976    0.0971   -0.0204 C   0  0  0  0  0  0  0  0  0  0  0  0
    1.2037   -0.6599   -0.0130 C   0  0  0  0  0  0  0  0  0  0  0  0
    0.0021   -0.0041    0.0020 C   0  0  0  0  0  0  0  0  0  0  0  0
   -0.0178    1.4603    0.0101 C   0  0  0  0  0  0  0  0  0  0  0  0
   -1.0826    2.0518    0.0183 O   0  0  0  0  0  0  0  0  0  0  0  0
   -1.2669   -0.7688    0.0096 C   0  0  0  0  0  0  0  0  0  0  0  0
   -1.8811   -1.1191   -1.1934 C   0  0  0  0  0  0  0  0  0  0  0  0
   -3.0611   -1.8367   -1.1795 C   0  0  0  0  0  0  0  0  0  0  0  0
   -3.6396   -2.1990    0.0237 C   0  0  0  0  0  0  0  0  0  0  0  0
   -3.0388   -1.8500    1.2198 C   0  0  0  0  0  0  0  0  0  0  0  0
   -1.8559   -1.1370    1.2198 C   0  0  0  0  0  0  0  0  0  0  0  0
   -1.1039   -0.6995    2.7220 Cl  0  0  0  0  0  0  0  0  0  0  0  0
   -1.1601   -0.6597   -2.7043 Cl  0  0  0  0  0  0  0  0  0  0  0  0
    3.6539   -0.5268   -0.0352 C   0  0  0  0  0  0  0  0  0  0  0  0
    4.7353    0.2302   -0.0411 N   0  0  0  0  0  0  0  0  0  0  0  0
    4.6469    1.5556   -0.0332 C   0  0  0  0  0  0  0  0  0  0  0  0
    3.4843    2.1894   -0.0191 N   0  0  0  0  0  0  0  0  0  0  0  0
    5.8098    2.2997   -0.0394 N   0  0  0  0  0  0  0  0  0  0  0  0
    3.1523    6.2872    2.9856 H   0  0  0  0  0  0  0  0  0  0  0  0
    2.3032    6.1812    4.5464 H   0  0  0  0  0  0  0  0  0  0  0  0
    2.4739    4.7328    3.5259 H   0  0  0  0  0  0  0  0  0  0  0  0
   -0.1900    7.7780    2.4697 H   0  0  0  0  0  0  0  0  0  0  0  0
    0.7934    7.9071    3.9477 H   0  0  0  0  0  0  0  0  0  0  0  0
    1.5540    8.1143    2.3518 H   0  0  0  0  0  0  0  0  0  0  0  0
    1.9360    6.0409    0.9448 H   0  0  0  0  0  0  0  0  0  0  0  0
    0.1566    5.9958    0.9615 H   0  0  0  0  0  0  0  0  0  0  0  0
    0.2236    3.7344    1.9765 H   0  0  0  0  0  0  0  0  0  0  0  0
    2.0029    3.7795    1.9597 H   0  0  0  0  0  0  0  0  0  0  0  0
    1.9738    4.0094   -0.5091 H   0  0  0  0  0  0  0  0  0  0  0  0
    0.1945    3.9643   -0.4923 H   0  0  0  0  0  0  0  0  0  0  0  0
    1.2390   -1.7393   -0.0188 H   0  0  0  0  0  0  0  0  0  0  0  0
   -3.5352   -2.1123   -2.1099 H   0  0  0  0  0  0  0  0  0  0  0  0
   -4.5645   -2.7565    0.0292 H   0  0  0  0  0  0  0  0  0  0  0  0
   -3.4956   -2.1359    2.1558 H   0  0  0  0  0  0  0  0  0  0  0  0
    3.7347   -1.6038   -0.0414 H   0  0  0  0  0  0  0  0  0  0  0  0
    5.7657    3.2687   -0.0334 H   0  0  0  0  0  0  0  0  0  0  0  0
    6.6710    1.8535   -0.0497 H   0  0  0  0  0  0  0  0  0  0  0  0
    1.0402    6.1209    2.8666 N   0  3  0  0  0  0  0  0  0  0  0  0
    0.2873    5.6366    3.3694 H   0  0  0  0  0  0  0  0  0  0  0  0
  1 26  1  0  0  0  0
  1 27  1  0  0  0  0
  1 28  1  0  0  0  0
  1 45  1  0  0  0  0
  2 29  1  0  0  0  0
  2 30  1  0  0  0  0
  2 31  1  0  0  0  0
  2 45  1  0  0  0  0
  3  4  1  0  0  0  0
  3 32  1  0  0  0  0
  3 33  1  0  0  0  0
  3 45  1  0  0  0  0
  4  5  1  0  0  0  0
  4 34  1  0  0  0  0
  4 35  1  0  0  0  0
  5  6  1  0  0  0  0
  5 36  1  0  0  0  0
  5 37  1  0  0  0  0
  6 11  1  0  0  0  0
  6  7  1  0  0  0  0
  7 24  2  0  0  0  0
  7  8  1  0  0  0  0
  8  9  1  0  0  0  0
  8 21  2  0  0  0  0
  9 10  2  0  0  0  0
  9 38  1  0  0  0  0
 10 11  1  0  0  0  0
 10 13  1  0  0  0  0
 11 12  2  0  0  0  0
 13 18  2  0  0  0  0
 13 14  1  0  0  0  0
 14 15  2  0  0  0  0
 14 20  1  0  0  0  0
 15 16  1  0  0  0  0
 15 39  1  0  0  0  0
 16 17  2  0  0  0  0
 16 40  1  0  0  0  0
 17 18  1  0  0  0  0
 17 41  1  0  0  0  0
 18 19  1  0  0  0  0
 21 22  1  0  0  0  0
 21 42  1  0  0  0  0
 22 23  2  0  0  0  0
 23 24  1  0  0  0  0
 23 25  1  0  0  0  0
 25 43  1  0  0  0  0
 25 44  1  0  0  0  0
 45 46  1  0  0  0  0
M  CHG  1  45   1
M  END
$$$$
ZINC03815571
  -OEChem-08230709403D

 37 39  0     0  0  0  0  0  0999 V2000
   -0.7527    1.5927   -1.2315 C   0  0  0  0  0  0  0  0  0  0  0  0
   -0.0127    1.0858    0.0080 C   0  0  0  0  0  0  0  0  0  0  0  0
   -0.6984    1.5583    1.2133 N   0  0  0  0  0  0  0  0  0  0  0  0
   -0.2103    1.2245    2.4609 C   0  0  0  0  0  0  0  0  0  0  0  0
    0.8799    0.4691    2.5405 N   0  0  0  0  0  0  0  0  0  0  0  0
    1.3900    0.1267    3.7085 C   0  0  0  0  0  0  0  0  0  0  0  0
    0.7496    0.5680    4.8764 C   0  0  0  0  0  0  0  0  0  0  0  0
    1.2450    0.2287    6.1563 C   0  0  0  0  0  0  0  0  0  0  0  0
    0.5843    0.6839    7.2657 C   0  0  0  0  0  0  0  0  0  0  0  0
   -0.6153    1.5076    7.1005 C   0  0  0  0  0  0  0  0  0  0  0  0
   -1.2090    1.9171    8.0822 O   0  0  0  0  0  0  0  0  0  0  0  0
   -1.0650    1.8151    5.8687 N   0  0  0  0  0  0  0  0  0  0  0  0
   -0.4092    1.3638    4.7513 C   0  0  0  0  0  0  0  0  0  0  0  0
   -0.8487    1.6643    3.5340 N   0  0  0  0  0  0  0  0  0  0  0  0
   -2.2665    2.6401    5.7206 C   0  0  0  0  0  0  0  0  0  0  0  0
    1.0781    0.3457    8.6210 C   0  0  0  0  0  0  0  0  0  0  0  0
    0.6242   -0.8059    9.2651 C   0  0  0  0  0  0  0  0  0  0  0  0
    1.0918   -1.1176   10.5267 C   0  0  0  0  0  0  0  0  0  0  0  0
    2.0005   -0.2859   11.1559 C   0  0  0  0  0  0  0  0  0  0  0  0
    2.4509    0.8597   10.5249 C   0  0  0  0  0  0  0  0  0  0  0  0
    1.9949    1.1805    9.2612 C   0  0  0  0  0  0  0  0  0  0  0  0
    2.5605    2.6193    8.4715 Cl  0  0  0  0  0  0  0  0  0  0  0  0
   -0.5217   -1.8473    8.4801 Cl  0  0  0  0  0  0  0  0  0  0  0  0
   -1.7753    1.2154   -1.2238 H   0  0  0  0  0  0  0  0  0  0  0  0
   -0.7675    2.6825   -1.2255 H   0  0  0  0  0  0  0  0  0  0  0  0
   -0.2425    1.2411   -2.1283 H   0  0  0  0  0  0  0  0  0  0  0  0
    0.0021   -0.0041    0.0020 H   0  0  0  0  0  0  0  0  0  0  0  0
    1.0099    1.4631    0.0003 H   0  0  0  0  0  0  0  0  0  0  0  0
   -1.4954    2.1056    1.1349 H   0  0  0  0  0  0  0  0  0  0  0  0
    2.2791   -0.4839    3.7643 H   0  0  0  0  0  0  0  0  0  0  0  0
    2.1315   -0.3797    6.2573 H   0  0  0  0  0  0  0  0  0  0  0  0
   -3.1463    1.9977    5.6845 H   0  0  0  0  0  0  0  0  0  0  0  0
   -2.3475    3.3197    6.5689 H   0  0  0  0  0  0  0  0  0  0  0  0
   -2.1997    3.2169    4.7981 H   0  0  0  0  0  0  0  0  0  0  0  0
    0.7443   -2.0108   11.0247 H   0  0  0  0  0  0  0  0  0  0  0  0
    2.3597   -0.5318   12.1443 H   0  0  0  0  0  0  0  0  0  0  0  0
    3.1604    1.5050   11.0215 H   0  0  0  0  0  0  0  0  0  0  0  0
  1  2  1  0  0  0  0
  1 24  1  0  0  0  0
  1 25  1  0  0  0  0
  1 26  1  0  0  0  0
  2  3  1  0  0  0  0
  2 27  1  0  0  0  0
  2 28  1  0  0  0  0
  3  4  1  0  0  0  0
  3 29  1  0  0  0  0
  4 14  2  0  0  0  0
  4  5  1  0  0  0  0
  5  6  2  0  0  0  0
  6  7  1  0  0  0  0
  6 30  1  0  0  0  0
  7 13  2  0  0  0  0
  7  8  1  0  0  0  0
  8  9  2  0  0  0  0
  8 31  1  0  0  0  0
  9 10  1  0  0  0  0
  9 16  1  0  0  0  0
 10 11  2  0  0  0  0
 10 12  1  0  0  0  0
 12 13  1  0  0  0  0
 12 15  1  0  0  0  0
 13 14  1  0  0  0  0
 15 32  1  0  0  0  0
 15 33  1  0  0  0  0
 15 34  1  0  0  0  0
 16 21  2  0  0  0  0
 16 17  1  0  0  0  0
 17 18  2  0  0  0  0
 17 23  1  0  0  0  0
 18 19  1  0  0  0  0
 18 35  1  0  0  0  0
 19 20  2  0  0  0  0
 19 36  1  0  0  0  0
 20 21  1  0  0  0  0
 20 37  1  0  0  0  0
 21 22  1  0  0  0  0
M  END
$$$$
ZINC03815814
  -OEChem-08230709403D

 28 30  0     0  0  0  0  0  0999 V2000
    3.7609    2.7040    0.0010 C   0  0  0  0  0  0  0  0  0  0  0  0
    3.1296    2.4000    1.1913 C   0  0  0  0  0  0  0  0  0  0  0  0
    1.8668    1.8244    1.1950 C   0  0  0  0  0  0  0  0  0  0  0  0
    1.2217    1.5319   -0.0014 C   0  0  0  0  0  0  0  0  0  0  0  0
    1.8497    1.8337   -1.2133 C   0  0  0  0  0  0  0  0  0  0  0  0
    3.1317    2.4258   -1.2059 C   0  0  0  0  0  0  0  0  0  0  0  0
    3.7697    2.7335   -2.4998 C   0  0  0  0  0  0  0  0  0  0  0  0
    5.0356    3.3182   -2.5471 C   0  0  0  0  0  0  0  0  0  0  0  0
    5.6172    3.5995   -3.7671 C   0  0  0  0  0  0  0  0  0  0  0  0
    4.9402    3.2990   -4.9498 C   0  0  0  0  0  0  0  0  0  0  0  0
    3.6860    2.7188   -4.9100 C   0  0  0  0  0  0  0  0  0  0  0  0
    3.0881    2.4304   -3.6879 C   0  0  0  0  0  0  0  0  0  0  0  0
    1.8294    1.8481   -3.6548 N   0  0  0  0  0  0  0  0  0  0  0  0
    1.3693    1.6434   -4.5188 H   0  0  0  0  0  0  0  0  0  0  0  0
    1.2066    1.5494   -2.5010 C   0  0  0  0  0  0  0  0  0  0  0  0
    0.1018    1.0388   -2.5251 O   0  0  0  0  0  0  0  0  0  0  0  0
    5.5176    3.5782   -6.1483 O   0  0  0  0  0  0  0  0  0  0  0  0
    6.8512    4.1700   -3.8165 O   0  0  0  0  0  0  0  0  0  0  0  0
   -0.0110    0.9628    0.0073 O   0  0  0  0  0  0  0  0  0  0  0  0
    1.2586    1.5384    2.3775 O   0  0  0  0  0  0  0  0  0  0  0  0
    4.7415    3.1566    0.0086 H   0  0  0  0  0  0  0  0  0  0  0  0
    3.6210    2.6177    2.1282 H   0  0  0  0  0  0  0  0  0  0  0  0
    5.5591    3.5505   -1.6315 H   0  0  0  0  0  0  0  0  0  0  0  0
    3.1692    2.4892   -5.8301 H   0  0  0  0  0  0  0  0  0  0  0  0
    5.3140    4.4608   -6.4869 H   0  0  0  0  0  0  0  0  0  0  0  0
    6.8376    5.1369   -3.8224 H   0  0  0  0  0  0  0  0  0  0  0  0
    0.0021   -0.0041    0.0020 H   0  0  0  0  0  0  0  0  0  0  0  0
    1.4530    0.6536    2.7159 H   0  0  0  0  0  0  0  0  0  0  0  0
  1  6  2  0  0  0  0
  1  2  1  0  0  0  0
  1 21  1  0  0  0  0
  2  3  2  0  0  0  0
  2 22  1  0  0  0  0
  3  4  1  0  0  0  0
  3 20  1  0  0  0  0
  4  5  2  0  0  0  0
  4 19  1  0  0  0  0
  5 15  1  0  0  0  0
  5  6  1  0  0  0  0
  6  7  1  0  0  0  0
  7 12  2  0  0  0  0
  7  8  1  0  0  0  0
  8  9  2  0  0  0  0
  8 23  1  0  0  0  0
  9 10  1  0  0  0  0
  9 18  1  0  0  0  0
 10 11  2  0  0  0  0
 10 17  1  0  0  0  0
 11 12  1  0  0  0  0
 11 24  1  0  0  0  0
 12 13  1  0  0  0  0
 13 14  1  0  0  0  0
 13 15  1  0  0  0  0
 15 16  2  0  0  0  0
 17 25  1  0  0  0  0
 18 26  1  0  0  0  0
 19 27  1  0  0  0  0
 20 28  1  0  0  0  0
M  END
$$$$
ZINC03832229
  -OEChem-08230709403D

 57 60  0     0  0  0  0  0  0999 V2000
    4.9967   -2.4487   -3.0291 C   0  0  0  0  0  0  0  0  0  0  0  0
    4.5995   -2.7552   -1.5837 C   0  0  0  0  0  0  0  0  0  0  0  0
    2.3738   -3.5757   -2.0690 C   0  0  0  0  0  0  0  0  0  0  0  0
    0.9495   -3.0728   -2.3127 C   0  0  0  0  0  0  0  0  0  0  0  0
    2.8094   -2.4152    0.0109 C   0  0  0  0  0  0  0  0  0  0  0  0
    1.6120   -1.6478    0.1503 O   0  0  0  0  0  0  0  0  0  0  0  0
    1.7253   -0.2985    0.0243 C   0  0  0  0  0  0  0  0  0  0  0  0
    0.5910    0.4990    0.0637 C   0  0  0  0  0  0  0  0  0  0  0  0
    0.7052    1.8692   -0.0647 C   0  0  0  0  0  0  0  0  0  0  0  0
    1.9559    2.4487   -0.2332 C   0  0  0  0  0  0  0  0  0  0  0  0
    3.0909    1.6496   -0.2720 C   0  0  0  0  0  0  0  0  0  0  0  0
    2.9750    0.2795   -0.1439 C   0  0  0  0  0  0  0  0  0  0  0  0
    2.0725    3.8379   -0.3629 N   0  0  0  0  0  0  0  0  0  0  0  0
    1.2028    4.6707    0.3151 C   0  0  0  0  0  0  0  0  0  0  0  0
    0.3027    4.1299    1.1292 N   0  0  0  0  0  0  0  0  0  0  0  0
   -0.5504    4.8810    1.8000 C   0  0  0  0  0  0  0  0  0  0  0  0
   -0.4908    6.2733    1.6381 C   0  0  0  0  0  0  0  0  0  0  0  0
   -1.3779    7.1303    2.3303 C   0  0  0  0  0  0  0  0  0  0  0  0
   -1.2798    8.4815    2.1386 C   0  0  0  0  0  0  0  0  0  0  0  0
   -0.2623    9.0064    1.2252 C   0  0  0  0  0  0  0  0  0  0  0  0
   -0.1684   10.2080    1.0485 O   0  0  0  0  0  0  0  0  0  0  0  0
    0.5700    8.1672    0.5792 N   0  0  0  0  0  0  0  0  0  0  0  0
    0.4788    6.8105    0.7648 C   0  0  0  0  0  0  0  0  0  0  0  0
    1.3004    5.9786    0.1340 N   0  0  0  0  0  0  0  0  0  0  0  0
    1.5824    8.7080   -0.3311 C   0  0  0  0  0  0  0  0  0  0  0  0
   -2.1957    9.4060    2.8487 C   0  0  0  0  0  0  0  0  0  0  0  0
   -3.5629    9.3939    2.5878 C   0  0  0  0  0  0  0  0  0  0  0  0
   -4.3666   10.2491    3.2592 C   0  0  0  0  0  0  0  0  0  0  0  0
   -3.2063   11.1271    4.2925 S   0  0  0  0  0  0  0  0  0  0  0  0
   -1.7160   10.2944    3.7712 C   0  0  0  0  0  0  0  0  0  0  0  0
    4.4199   -3.0791   -3.7059 H   0  0  0  0  0  0  0  0  0  0  0  0
    4.7934   -1.4003   -3.2472 H   0  0  0  0  0  0  0  0  0  0  0  0
    6.0597   -2.6484   -3.1639 H   0  0  0  0  0  0  0  0  0  0  0  0
    5.1556   -2.1051   -0.9084 H   0  0  0  0  0  0  0  0  0  0  0  0
    4.8290   -3.7963   -1.3568 H   0  0  0  0  0  0  0  0  0  0  0  0
    2.8363   -3.8328   -3.0219 H   0  0  0  0  0  0  0  0  0  0  0  0
    2.3431   -4.4583   -1.4302 H   0  0  0  0  0  0  0  0  0  0  0  0
    0.3547   -3.8689   -2.7605 H   0  0  0  0  0  0  0  0  0  0  0  0
    0.5023   -2.7746   -1.3645 H   0  0  0  0  0  0  0  0  0  0  0  0
    0.9768   -2.2166   -2.9867 H   0  0  0  0  0  0  0  0  0  0  0  0
    3.6205   -1.9239    0.5484 H   0  0  0  0  0  0  0  0  0  0  0  0
    2.6520   -3.4121    0.4226 H   0  0  0  0  0  0  0  0  0  0  0  0
   -0.3816    0.0482    0.1943 H   0  0  0  0  0  0  0  0  0  0  0  0
   -0.1785    2.4897   -0.0385 H   0  0  0  0  0  0  0  0  0  0  0  0
    4.0640    2.0994   -0.4030 H   0  0  0  0  0  0  0  0  0  0  0  0
    3.8576   -0.3422   -0.1745 H   0  0  0  0  0  0  0  0  0  0  0  0
    2.7639    4.2159   -0.9287 H   0  0  0  0  0  0  0  0  0  0  0  0
   -1.2791    4.4333    2.4595 H   0  0  0  0  0  0  0  0  0  0  0  0
   -2.1217    6.7242    2.9997 H   0  0  0  0  0  0  0  0  0  0  0  0
    1.1660    8.7805   -1.3358 H   0  0  0  0  0  0  0  0  0  0  0  0
    1.8849    9.6984    0.0091 H   0  0  0  0  0  0  0  0  0  0  0  0
    2.4495    8.0477   -0.3438 H   0  0  0  0  0  0  0  0  0  0  0  0
   -3.9762    8.7088    1.8623 H   0  0  0  0  0  0  0  0  0  0  0  0
   -5.4370   10.3725    3.1857 H   0  0  0  0  0  0  0  0  0  0  0  0
   -0.6992   10.4511    4.0995 H   0  0  0  0  0  0  0  0  0  0  0  0
    3.1528   -2.4976   -1.4244 N   0  3  0  0  0  0  0  0  0  0  0  0
    2.9215   -1.6042   -1.8745 H   0  0  0  0  0  0  0  0  0  0  0  0
  1  2  1  0  0  0  0
  1 31  1  0  0  0  0
  1 32  1  0  0  0  0
  1 33  1  0  0  0  0
  2 34  1  0  0  0  0
  2 35  1  0  0  0  0
  2 56  1  0  0  0  0
  3  4  1  0  0  0  0
  3 36  1  0  0  0  0
  3 37  1  0  0  0  0
  3 56  1  0  0  0  0
  4 38  1  0  0  0  0
  4 39  1  0  0  0  0
  4 40  1  0  0  0  0
  5  6  1  0  0  0  0
  5 41  1  0  0  0  0
  5 42  1  0  0  0  0
  5 56  1  0  0  0  0
  6  7  1  0  0  0  0
  7 12  2  0  0  0  0
  7  8  1  0  0  0  0
  8  9  2  0  0  0  0
  8 43  1  0  0  0  0
  9 10  1  0  0  0  0
  9 44  1  0  0  0  0
 10 11  2  0  0  0  0
 10 13  1  0  0  0  0
 11 12  1  0  0  0  0
 11 45  1  0  0  0  0
 12 46  1  0  0  0  0
 13 14  1  0  0  0  0
 13 47  1  0  0  0  0
 14 24  2  0  0  0  0
 14 15  1  0  0  0  0
 15 16  2  0  0  0  0
 16 17  1  0  0  0  0
 16 48  1  0  0  0  0
 17 23  2  0  0  0  0
 17 18  1  0  0  0  0
 18 19  2  0  0  0  0
 18 49  1  0  0  0  0
 19 20  1  0  0  0  0
 19 26  1  0  0  0  0
 20 21  2  0  0  0  0
 20 22  1  0  0  0  0
 22 23  1  0  0  0  0
 22 25  1  0  0  0  0
 23 24  1  0  0  0  0
 25 50  1  0  0  0  0
 25 51  1  0  0  0  0
 25 52  1  0  0  0  0
 26 30  2  0  0  0  0
 26 27  1  0  0  0  0
 27 28  2  0  0  0  0
 27 53  1  0  0  0  0
 28 29  1  0  0  0  0
 28 54  1  0  0  0  0
 29 30  1  0  0  0  0
 30 55  1  0  0  0  0
 56 57  1  0  0  0  0
M  CHG  1  56   1
M  END
$$$$
ZINC03832231
  -OEChem-08230709403D

 43 46  0     0  0  0  0  0  0999 V2000
   -1.8924    2.3205    1.4933 C   0  0  0  0  0  0  0  0  0  0  0  0
   -1.2515    2.0637    0.1280 C   0  0  0  0  0  0  0  0  0  0  0  0
    0.0102    1.3414    0.3089 N   0  0  0  0  0  0  0  0  0  0  0  0
    0.0125   -0.0305    0.3144 C   0  0  0  0  0  0  0  0  0  0  0  0
    1.2204   -0.7418    0.4818 C   0  0  0  0  0  0  0  0  0  0  0  0
    2.4393   -0.0451    0.6459 C   0  0  0  0  0  0  0  0  0  0  0  0
    2.4272    1.3240    0.6396 C   0  0  0  0  0  0  0  0  0  0  0  0
    1.1570    2.0310    0.4627 C   0  0  0  0  0  0  0  0  0  0  0  0
    1.1373    3.2490    0.4554 O   0  0  0  0  0  0  0  0  0  0  0  0
    3.6881    2.0835    0.8093 C   0  0  0  0  0  0  0  0  0  0  0  0
    3.8748    2.8882    1.9328 C   0  0  0  0  0  0  0  0  0  0  0  0
    5.0534    3.5889    2.0878 C   0  0  0  0  0  0  0  0  0  0  0  0
    6.0439    3.5034    1.1258 C   0  0  0  0  0  0  0  0  0  0  0  0
    5.8622    2.7110    0.0065 C   0  0  0  0  0  0  0  0  0  0  0  0
    4.6904    2.0010   -0.1568 C   0  0  0  0  0  0  0  0  0  0  0  0
    1.1791   -2.1442    0.4804 C   0  0  0  0  0  0  0  0  0  0  0  0
    0.0127   -2.7416    0.3227 N   0  0  0  0  0  0  0  0  0  0  0  0
   -1.1042   -2.0395    0.1678 C   0  0  0  0  0  0  0  0  0  0  0  0
   -1.1153   -0.7155    0.1622 N   0  0  0  0  0  0  0  0  0  0  0  0
   -2.2988   -2.7159    0.0065 N   0  0  0  0  0  0  0  0  0  0  0  0
   -2.3032   -4.1049   -0.1071 C   0  0  0  0  0  0  0  0  0  0  0  0
   -1.2515   -4.7750   -0.7312 C   0  0  0  0  0  0  0  0  0  0  0  0
   -1.2919   -6.1508   -0.8195 C   0  0  0  0  0  0  0  0  0  0  0  0
   -2.3125   -6.8304   -0.3313 N   0  0  0  0  0  0  0  0  0  0  0  0
   -3.3287   -6.2328    0.2621 C   0  0  0  0  0  0  0  0  0  0  0  0
   -3.3622   -4.8604    0.3952 C   0  0  0  0  0  0  0  0  0  0  0  0
   -2.8312    2.8579    1.3587 H   0  0  0  0  0  0  0  0  0  0  0  0
   -2.0863    1.3690    1.9884 H   0  0  0  0  0  0  0  0  0  0  0  0
   -1.2165    2.9176    2.1055 H   0  0  0  0  0  0  0  0  0  0  0  0
   -1.0576    3.0152   -0.3672 H   0  0  0  0  0  0  0  0  0  0  0  0
   -1.9274    1.4666   -0.4842 H   0  0  0  0  0  0  0  0  0  0  0  0
    3.3660   -0.5845    0.7747 H   0  0  0  0  0  0  0  0  0  0  0  0
    3.1003    2.9594    2.6821 H   0  0  0  0  0  0  0  0  0  0  0  0
    5.2010    4.2090    2.9597 H   0  0  0  0  0  0  0  0  0  0  0  0
    6.9628    4.0573    1.2493 H   0  0  0  0  0  0  0  0  0  0  0  0
    6.6391    2.6481   -0.7412 H   0  0  0  0  0  0  0  0  0  0  0  0
    4.5498    1.3823   -1.0309 H   0  0  0  0  0  0  0  0  0  0  0  0
    2.0824   -2.7226    0.6061 H   0  0  0  0  0  0  0  0  0  0  0  0
   -3.1341   -2.2239   -0.0277 H   0  0  0  0  0  0  0  0  0  0  0  0
   -0.4155   -4.2245   -1.1369 H   0  0  0  0  0  0  0  0  0  0  0  0
   -0.4800   -6.6784   -1.2978 H   0  0  0  0  0  0  0  0  0  0  0  0
   -4.1445   -6.8259    0.6482 H   0  0  0  0  0  0  0  0  0  0  0  0
   -4.1971   -4.3776    0.8812 H   0  0  0  0  0  0  0  0  0  0  0  0
  1  2  1  0  0  0  0
  1 27  1  0  0  0  0
  1 28  1  0  0  0  0
  1 29  1  0  0  0  0
  2  3  1  0  0  0  0
  2 30  1  0  0  0  0
  2 31  1  0  0  0  0
  3  8  1  0  0  0  0
  3  4  1  0  0  0  0
  4 19  2  0  0  0  0
  4  5  1  0  0  0  0
  5  6  1  0  0  0  0
  5 16  2  0  0  0  0
  6  7  2  0  0  0  0
  6 32  1  0  0  0  0
  7  8  1  0  0  0  0
  7 10  1  0  0  0  0
  8  9  2  0  0  0  0
 10 15  2  0  0  0  0
 10 11  1  0  0  0  0
 11 12  2  0  0  0  0
 11 33  1  0  0  0  0
 12 13  1  0  0  0  0
 12 34  1  0  0  0  0
 13 14  2  0  0  0  0
 13 35  1  0  0  0  0
 14 15  1  0  0  0  0
 14 36  1  0  0  0  0
 15 37  1  0  0  0  0
 16 17  1  0  0  0  0
 16 38  1  0  0  0  0
 17 18  2  0  0  0  0
 18 19  1  0  0  0  0
 18 20  1  0  0  0  0
 20 21  1  0  0  0  0
 20 39  1  0  0  0  0
 21 26  2  0  0  0  0
 21 22  1  0  0  0  0
 22 23  2  0  0  0  0
 22 40  1  0  0  0  0
 23 24  1  0  0  0  0
 23 41  1  0  0  0  0
 24 25  2  0  0  0  0
 25 26  1  0  0  0  0
 25 42  1  0  0  0  0
 26 43  1  0  0  0  0
M  END
$$$$
ZINC03832250
  -OEChem-08230709403D

 40 43  0     0  0  0  0  0  0999 V2000
    2.2818    6.3663   -2.2119 C   0  0  0  0  0  0  0  0  0  0  0  0
    1.9344    5.6582   -0.9773 N   0  0  0  0  0  0  0  0  0  0  0  0
    1.4547    6.3630    0.0977 C   0  0  0  0  0  0  0  0  0  0  0  0
    1.1153    5.6960    1.2948 C   0  0  0  0  0  0  0  0  0  0  0  0
    1.2670    4.2942    1.3956 C   0  0  0  0  0  0  0  0  0  0  0  0
    1.7464    3.5993    0.3176 C   0  0  0  0  0  0  0  0  0  0  0  0
    2.0948    4.3227   -0.9071 C   0  0  0  0  0  0  0  0  0  0  0  0
    2.5270    3.7129   -1.8689 O   0  0  0  0  0  0  0  0  0  0  0  0
    1.9168    2.1293    0.3917 C   0  0  0  0  0  0  0  0  0  0  0  0
    0.8040    1.3022    0.5405 C   0  0  0  0  0  0  0  0  0  0  0  0
    0.9690   -0.0661    0.6083 C   0  0  0  0  0  0  0  0  0  0  0  0
    2.2353   -0.6177    0.5291 C   0  0  0  0  0  0  0  0  0  0  0  0
    3.3431    0.1978    0.3814 C   0  0  0  0  0  0  0  0  0  0  0  0
    3.1907    1.5675    0.3123 C   0  0  0  0  0  0  0  0  0  0  0  0
    0.6288    6.4539    2.3705 C   0  0  0  0  0  0  0  0  0  0  0  0
    0.5082    7.7596    2.2198 N   0  0  0  0  0  0  0  0  0  0  0  0
    0.8376    8.3535    1.0781 C   0  0  0  0  0  0  0  0  0  0  0  0
    1.3006    7.6808    0.0359 N   0  0  0  0  0  0  0  0  0  0  0  0
    0.6919    9.7242    0.9745 N   0  0  0  0  0  0  0  0  0  0  0  0
    0.1005   10.4425    2.0121 C   0  0  0  0  0  0  0  0  0  0  0  0
   -0.9168    9.8801    2.7824 C   0  0  0  0  0  0  0  0  0  0  0  0
   -1.4728   10.6225    3.8031 C   0  0  0  0  0  0  0  0  0  0  0  0
   -1.0606   11.8523    4.0474 N   0  0  0  0  0  0  0  0  0  0  0  0
   -0.1043   12.4214    3.3379 C   0  0  0  0  0  0  0  0  0  0  0  0
    0.5066   11.7443    2.3032 C   0  0  0  0  0  0  0  0  0  0  0  0
    3.3278    6.6705   -2.1742 H   0  0  0  0  0  0  0  0  0  0  0  0
    2.1259    5.7064   -3.0654 H   0  0  0  0  0  0  0  0  0  0  0  0
    1.6502    7.2487   -2.3147 H   0  0  0  0  0  0  0  0  0  0  0  0
    1.0085    3.7791    2.3089 H   0  0  0  0  0  0  0  0  0  0  0  0
   -0.1854    1.7314    0.5980 H   0  0  0  0  0  0  0  0  0  0  0  0
    0.1080   -0.7077    0.7232 H   0  0  0  0  0  0  0  0  0  0  0  0
    2.3595   -1.6891    0.5830 H   0  0  0  0  0  0  0  0  0  0  0  0
    4.3291   -0.2385    0.3204 H   0  0  0  0  0  0  0  0  0  0  0  0
    4.0562    2.2030    0.1967 H   0  0  0  0  0  0  0  0  0  0  0  0
    0.3591    5.9791    3.3022 H   0  0  0  0  0  0  0  0  0  0  0  0
    1.0013   10.1861    0.1796 H   0  0  0  0  0  0  0  0  0  0  0  0
   -1.2619    8.8760    2.5848 H   0  0  0  0  0  0  0  0  0  0  0  0
   -2.2587   10.1937    4.4073 H   0  0  0  0  0  0  0  0  0  0  0  0
    0.2036   13.4301    3.5702 H   0  0  0  0  0  0  0  0  0  0  0  0
    1.2884   12.2160    1.7262 H   0  0  0  0  0  0  0  0  0  0  0  0
  1  2  1  0  0  0  0
  1 26  1  0  0  0  0
  1 27  1  0  0  0  0
  1 28  1  0  0  0  0
  2  7  1  0  0  0  0
  2  3  1  0  0  0  0
  3 18  2  0  0  0  0
  3  4  1  0  0  0  0
  4  5  1  0  0  0  0
  4 15  2  0  0  0  0
  5  6  2  0  0  0  0
  5 29  1  0  0  0  0
  6  7  1  0  0  0  0
  6  9  1  0  0  0  0
  7  8  2  0  0  0  0
  9 14  2  0  0  0  0
  9 10  1  0  0  0  0
 10 11  2  0  0  0  0
 10 30  1  0  0  0  0
 11 12  1  0  0  0  0
 11 31  1  0  0  0  0
 12 13  2  0  0  0  0
 12 32  1  0  0  0  0
 13 14  1  0  0  0  0
 13 33  1  0  0  0  0
 14 34  1  0  0  0  0
 15 16  1  0  0  0  0
 15 35  1  0  0  0  0
 16 17  2  0  0  0  0
 17 18  1  0  0  0  0
 17 19  1  0  0  0  0
 19 20  1  0  0  0  0
 19 36  1  0  0  0  0
 20 25  2  0  0  0  0
 20 21  1  0  0  0  0
 21 22  2  0  0  0  0
 21 37  1  0  0  0  0
 22 23  1  0  0  0  0
 22 38  1  0  0  0  0
 23 24  2  0  0  0  0
 24 25  1  0  0  0  0
 24 39  1  0  0  0  0
 25 40  1  0  0  0  0
M  END
$$$$
ZINC03832342
  -OEChem-08230709403D

 49 52  0     0  0  0  0  0  0999 V2000
    3.9732    3.6195    0.0048 C   0  0  0  0  0  0  0  0  0  0  0  0
    3.3738    4.4689   -0.9079 C   0  0  0  0  0  0  0  0  0  0  0  0
    2.0036    4.6319   -0.9063 C   0  0  0  0  0  0  0  0  0  0  0  0
    1.2229    3.9385    0.0177 C   0  0  0  0  0  0  0  0  0  0  0  0
    1.8331    3.0880    0.9387 C   0  0  0  0  0  0  0  0  0  0  0  0
    3.2038    2.9289    0.9240 C   0  0  0  0  0  0  0  0  0  0  0  0
   -0.2494    4.1097    0.0250 C   0  0  0  0  0  0  0  0  0  0  0  0
   -0.9291    5.2829    0.0338 C   0  0  0  0  0  0  0  0  0  0  0  0
   -2.2760    5.0342    0.0389 N   0  0  0  0  0  0  0  0  0  0  0  0
   -2.5086    3.6829    0.0334 C   0  0  0  0  0  0  0  0  0  0  0  0
   -1.2577    3.0416    0.0304 C   0  0  0  0  0  0  0  0  0  0  0  0
   -1.2185    1.6412    0.0167 C   0  0  0  0  0  0  0  0  0  0  0  0
   -2.3712    0.9770    0.0186 N   0  0  0  0  0  0  0  0  0  0  0  0
   -3.5254    1.6185    0.0275 C   0  0  0  0  0  0  0  0  0  0  0  0
   -3.6085    2.9315    0.0346 N   0  0  0  0  0  0  0  0  0  0  0  0
   -0.0111    0.9658    0.0074 N   0  0  0  0  0  0  0  0  0  0  0  0
   -3.2725    6.0187    0.0487 C   0  0  0  0  0  0  0  0  0  0  0  0
   -4.3120    5.9657   -0.8708 C   0  0  0  0  0  0  0  0  0  0  0  0
   -5.2957    6.9348   -0.8551 C   0  0  0  0  0  0  0  0  0  0  0  0
   -5.2405    7.9634    0.0678 C   0  0  0  0  0  0  0  0  0  0  0  0
   -4.2041    8.0217    0.9811 C   0  0  0  0  0  0  0  0  0  0  0  0
   -3.2199    7.0525    0.9739 C   0  0  0  0  0  0  0  0  0  0  0  0
   -4.1477    9.1442    1.9850 C   0  0  0  0  0  0  0  0  0  0  0  0
   -3.3125   11.3833    2.3740 C   0  0  0  0  0  0  0  0  0  0  0  0
   -2.5160   12.5322    1.7523 C   0  0  0  0  0  0  0  0  0  0  0  0
   -3.2249   13.0472    0.6235 O   0  0  0  0  0  0  0  0  0  0  0  0
    5.0459    3.4948   -0.0004 H   0  0  0  0  0  0  0  0  0  0  0  0
    3.9795    5.0051   -1.6234 H   0  0  0  0  0  0  0  0  0  0  0  0
    1.5367    5.2950   -1.6196 H   0  0  0  0  0  0  0  0  0  0  0  0
    1.2339    2.5517    1.6596 H   0  0  0  0  0  0  0  0  0  0  0  0
    3.6772    2.2675    1.6345 H   0  0  0  0  0  0  0  0  0  0  0  0
   -0.4774    6.2639    0.0370 H   0  0  0  0  0  0  0  0  0  0  0  0
   -4.4385    1.0417    0.0287 H   0  0  0  0  0  0  0  0  0  0  0  0
    0.0021   -0.0041    0.0020 H   0  0  0  0  0  0  0  0  0  0  0  0
    0.8223    1.4622    0.0021 H   0  0  0  0  0  0  0  0  0  0  0  0
   -4.3532    5.1653   -1.5946 H   0  0  0  0  0  0  0  0  0  0  0  0
   -6.1063    6.8921   -1.5674 H   0  0  0  0  0  0  0  0  0  0  0  0
   -6.0084    8.7228    0.0750 H   0  0  0  0  0  0  0  0  0  0  0  0
   -2.4105    7.0986    1.6875 H   0  0  0  0  0  0  0  0  0  0  0  0
   -5.1602    9.4719    2.2209 H   0  0  0  0  0  0  0  0  0  0  0  0
   -3.6580    8.7946    2.8939 H   0  0  0  0  0  0  0  0  0  0  0  0
   -4.3192   11.7265    2.6126 H   0  0  0  0  0  0  0  0  0  0  0  0
   -2.8170   11.0492    3.2856 H   0  0  0  0  0  0  0  0  0  0  0  0
   -2.3836   13.3236    2.4901 H   0  0  0  0  0  0  0  0  0  0  0  0
   -1.5401   12.1666    1.4327 H   0  0  0  0  0  0  0  0  0  0  0  0
   -2.7772   13.7800    0.1788 H   0  0  0  0  0  0  0  0  0  0  0  0
   -3.3839   10.2682    1.4111 N   0  3  0  0  0  0  0  0  0  0  0  0
   -3.8479   10.5902    0.5537 H   0  0  0  0  0  0  0  0  0  0  0  0
   -2.4329    9.9523    1.1876 H   0  0  0  0  0  0  0  0  0  0  0  0
  1  6  2  0  0  0  0
  1  2  1  0  0  0  0
  1 27  1  0  0  0  0
  2  3  2  0  0  0  0
  2 28  1  0  0  0  0
  3  4  1  0  0  0  0
  3 29  1  0  0  0  0
  4  5  2  0  0  0  0
  4  7  1  0  0  0  0
  5  6  1  0  0  0  0
  5 30  1  0  0  0  0
  6 31  1  0  0  0  0
  7 11  1  0  0  0  0
  7  8  2  0  0  0  0
  8  9  1  0  0  0  0
  8 32  1  0  0  0  0
  9 10  1  0  0  0  0
  9 17  1  0  0  0  0
 10 15  2  0  0  0  0
 10 11  1  0  0  0  0
 11 12  2  0  0  0  0
 12 13  1  0  0  0  0
 12 16  1  0  0  0  0
 13 14  2  0  0  0  0
 14 15  1  0  0  0  0
 14 33  1  0  0  0  0
 16 34  1  0  0  0  0
 16 35  1  0  0  0  0
 17 22  2  0  0  0  0
 17 18  1  0  0  0  0
 18 19  2  0  0  0  0
 18 36  1  0  0  0  0
 19 20  1  0  0  0  0
 19 37  1  0  0  0  0
 20 21  2  0  0  0  0
 20 38  1  0  0  0  0
 21 22  1  0  0  0  0
 21 23  1  0  0  0  0
 22 39  1  0  0  0  0
 23 40  1  0  0  0  0
 23 41  1  0  0  0  0
 23 47  1  0  0  0  0
 24 25  1  0  0  0  0
 24 42  1  0  0  0  0
 24 43  1  0  0  0  0
 24 47  1  0  0  0  0
 25 26  1  0  0  0  0
 25 44  1  0  0  0  0
 25 45  1  0  0  0  0
 26 46  1  0  0  0  0
 47 48  1  0  0  0  0
 47 49  1  0  0  0  0
M  CHG  1  47   1
M  END
$$$$
ZINC03832343
  -OEChem-08230709403D

 49 52  0     0  0  0  0  0  0999 V2000
   -8.2079    4.0861    7.6777 C   0  0  0  0  0  0  0  0  0  0  0  0
   -7.8947    4.5808    6.4244 C   0  0  0  0  0  0  0  0  0  0  0  0
   -6.6361    4.3802    5.8952 C   0  0  0  0  0  0  0  0  0  0  0  0
   -5.6794    3.6774    6.6264 C   0  0  0  0  0  0  0  0  0  0  0  0
   -6.0026    3.1766    7.8868 C   0  0  0  0  0  0  0  0  0  0  0  0
   -7.2628    3.3880    8.4079 C   0  0  0  0  0  0  0  0  0  0  0  0
   -4.3259    3.4581    6.0634 C   0  0  0  0  0  0  0  0  0  0  0  0
   -4.0286    2.9797    4.8299 C   0  0  0  0  0  0  0  0  0  0  0  0
   -2.6691    2.9161    4.6765 N   0  0  0  0  0  0  0  0  0  0  0  0
   -2.0425    3.3640    5.8110 C   0  0  0  0  0  0  0  0  0  0  0  0
   -3.0440    3.7232    6.7297 C   0  0  0  0  0  0  0  0  0  0  0  0
   -2.6620    4.2176    7.9837 C   0  0  0  0  0  0  0  0  0  0  0  0
   -1.3633    4.3258    8.2511 N   0  0  0  0  0  0  0  0  0  0  0  0
   -0.4541    3.9769    7.3592 C   0  0  0  0  0  0  0  0  0  0  0  0
   -0.7681    3.5084    6.1706 N   0  0  0  0  0  0  0  0  0  0  0  0
   -3.6117    4.5842    8.9205 N   0  0  0  0  0  0  0  0  0  0  0  0
   -2.0131    2.4641    3.5243 C   0  0  0  0  0  0  0  0  0  0  0  0
   -2.3679    1.2492    2.9531 C   0  0  0  0  0  0  0  0  0  0  0  0
   -1.7196    0.8065    1.8167 C   0  0  0  0  0  0  0  0  0  0  0  0
   -0.7181    1.5718    1.2479 C   0  0  0  0  0  0  0  0  0  0  0  0
   -0.3586    2.7795    1.8176 C   0  0  0  0  0  0  0  0  0  0  0  0
   -1.0071    3.2303    2.9507 C   0  0  0  0  0  0  0  0  0  0  0  0
   -0.0127    1.0858    0.0080 C   0  0  0  0  0  0  0  0  0  0  0  0
   -0.0624    1.1171   -2.4126 C   0  0  0  0  0  0  0  0  0  0  0  0
   -0.8294    1.6425   -3.6277 C   0  0  0  0  0  0  0  0  0  0  0  0
   -0.7494    3.0689   -3.6613 O   0  0  0  0  0  0  0  0  0  0  0  0
   -9.1941    4.2458    8.0880 H   0  0  0  0  0  0  0  0  0  0  0  0
   -8.6365    5.1254    5.8591 H   0  0  0  0  0  0  0  0  0  0  0  0
   -6.3925    4.7672    4.9168 H   0  0  0  0  0  0  0  0  0  0  0  0
   -5.2669    2.6276    8.4559 H   0  0  0  0  0  0  0  0  0  0  0  0
   -7.5131    3.0038    9.3857 H   0  0  0  0  0  0  0  0  0  0  0  0
   -4.7534    2.6904    4.0833 H   0  0  0  0  0  0  0  0  0  0  0  0
    0.5898    4.0800    7.6161 H   0  0  0  0  0  0  0  0  0  0  0  0
   -3.3338    4.9251    9.7851 H   0  0  0  0  0  0  0  0  0  0  0  0
   -4.5555    4.5003    8.7128 H   0  0  0  0  0  0  0  0  0  0  0  0
   -3.1502    0.6512    3.3967 H   0  0  0  0  0  0  0  0  0  0  0  0
   -1.9953   -0.1381    1.3718 H   0  0  0  0  0  0  0  0  0  0  0  0
    0.4269    3.3728    1.3736 H   0  0  0  0  0  0  0  0  0  0  0  0
   -0.7287    4.1755    3.3929 H   0  0  0  0  0  0  0  0  0  0  0  0
    0.0021   -0.0041    0.0020 H   0  0  0  0  0  0  0  0  0  0  0  0
    1.0099    1.4631    0.0003 H   0  0  0  0  0  0  0  0  0  0  0  0
    0.9598    1.4946   -2.4371 H   0  0  0  0  0  0  0  0  0  0  0  0
   -0.0480    0.0274   -2.4353 H   0  0  0  0  0  0  0  0  0  0  0  0
   -0.3924    1.2326   -4.5383 H   0  0  0  0  0  0  0  0  0  0  0  0
   -1.8739    1.3387   -3.5573 H   0  0  0  0  0  0  0  0  0  0  0  0
   -1.2146    3.4715   -4.4073 H   0  0  0  0  0  0  0  0  0  0  0  0
   -0.7320    1.5785   -1.1818 N   0  3  0  0  0  0  0  0  0  0  0  0
   -0.7459    2.6050   -1.1683 H   0  0  0  0  0  0  0  0  0  0  0  0
   -1.6952    1.2229   -1.1667 H   0  0  0  0  0  0  0  0  0  0  0  0
  1  6  2  0  0  0  0
  1  2  1  0  0  0  0
  1 27  1  0  0  0  0
  2  3  2  0  0  0  0
  2 28  1  0  0  0  0
  3  4  1  0  0  0  0
  3 29  1  0  0  0  0
  4  5  2  0  0  0  0
  4  7  1  0  0  0  0
  5  6  1  0  0  0  0
  5 30  1  0  0  0  0
  6 31  1  0  0  0  0
  7 11  1  0  0  0  0
  7  8  2  0  0  0  0
  8  9  1  0  0  0  0
  8 32  1  0  0  0  0
  9 10  1  0  0  0  0
  9 17  1  0  0  0  0
 10 15  2  0  0  0  0
 10 11  1  0  0  0  0
 11 12  2  0  0  0  0
 12 13  1  0  0  0  0
 12 16  1  0  0  0  0
 13 14  2  0  0  0  0
 14 15  1  0  0  0  0
 14 33  1  0  0  0  0
 16 34  1  0  0  0  0
 16 35  1  0  0  0  0
 17 22  2  0  0  0  0
 17 18  1  0  0  0  0
 18 19  2  0  0  0  0
 18 36  1  0  0  0  0
 19 20  1  0  0  0  0
 19 37  1  0  0  0  0
 20 21  2  0  0  0  0
 20 23  1  0  0  0  0
 21 22  1  0  0  0  0
 21 38  1  0  0  0  0
 22 39  1  0  0  0  0
 23 40  1  0  0  0  0
 23 41  1  0  0  0  0
 23 47  1  0  0  0  0
 24 25  1  0  0  0  0
 24 42  1  0  0  0  0
 24 43  1  0  0  0  0
 24 47  1  0  0  0  0
 25 26  1  0  0  0  0
 25 44  1  0  0  0  0
 25 45  1  0  0  0  0
 26 46  1  0  0  0  0
 47 48  1  0  0  0  0
 47 49  1  0  0  0  0
M  CHG  1  47   1
M  END
$$$$
ZINC03832344
  -OEChem-08230709403D

 50 52  0     0  0  0  0  0  0999 V2000
    2.6950    2.0140   -0.5241 C   0  0  0  0  0  0  0  0  0  0  0  0
    2.7102    2.4060    0.8500 O   0  0  0  0  0  0  0  0  0  0  0  0
    1.9540    3.4829    1.1932 C   0  0  0  0  0  0  0  0  0  0  0  0
    1.2143    4.1466    0.2271 C   0  0  0  0  0  0  0  0  0  0  0  0
    0.4418    5.2460    0.5775 C   0  0  0  0  0  0  0  0  0  0  0  0
    0.4106    5.6818    1.8955 C   0  0  0  0  0  0  0  0  0  0  0  0
    1.1502    5.0193    2.8625 C   0  0  0  0  0  0  0  0  0  0  0  0
    1.9183    3.9147    2.5137 C   0  0  0  0  0  0  0  0  0  0  0  0
    2.6401    3.2594    3.4644 O   0  0  0  0  0  0  0  0  0  0  0  0
    3.9753    3.7141    3.6933 C   0  0  0  0  0  0  0  0  0  0  0  0
    1.1194    5.4462    4.1533 O   0  0  0  0  0  0  0  0  0  0  0  0
    0.2071    6.5006    4.4664 C   0  0  0  0  0  0  0  0  0  0  0  0
   -0.3050    5.9153   -0.3981 N   0  0  0  0  0  0  0  0  0  0  0  0
   -0.4940    7.2796   -0.3073 C   0  0  0  0  0  0  0  0  0  0  0  0
    0.2738    8.1768   -1.0854 C   0  0  0  0  0  0  0  0  0  0  0  0
    1.2526    7.7077   -1.9743 C   0  0  0  0  0  0  0  0  0  0  0  0
    1.9794    8.5953   -2.7139 C   0  0  0  0  0  0  0  0  0  0  0  0
    1.7581    9.9745   -2.5935 C   0  0  0  0  0  0  0  0  0  0  0  0
    0.8043   10.4604   -1.7287 C   0  0  0  0  0  0  0  0  0  0  0  0
    0.0437    9.5677   -0.9576 C   0  0  0  0  0  0  0  0  0  0  0  0
   -0.8899   10.0228   -0.1091 N   0  0  0  0  0  0  0  0  0  0  0  0
   -1.6143    9.2157    0.6231 C   0  0  0  0  0  0  0  0  0  0  0  0
   -1.4584    7.8218    0.5559 C   0  0  0  0  0  0  0  0  0  0  0  0
   -2.2703    6.9630    1.3645 C   0  0  0  0  0  0  0  0  0  0  0  0
   -2.9145    6.2817    2.0060 N   0  0  0  0  0  0  0  0  0  0  0  0
    2.4933   10.8406   -3.3384 O   0  0  0  0  0  0  0  0  0  0  0  0
    2.2213   12.2334   -3.1707 C   0  0  0  0  0  0  0  0  0  0  0  0
    2.9275    8.1377   -3.5747 O   0  0  0  0  0  0  0  0  0  0  0  0
    3.1049    6.7218   -3.6515 C   0  0  0  0  0  0  0  0  0  0  0  0
    3.3380    1.1446   -0.6611 H   0  0  0  0  0  0  0  0  0  0  0  0
    3.0592    2.8360   -1.1405 H   0  0  0  0  0  0  0  0  0  0  0  0
    1.6763    1.7625   -0.8190 H   0  0  0  0  0  0  0  0  0  0  0  0
    1.2384    3.8084   -0.7983 H   0  0  0  0  0  0  0  0  0  0  0  0
   -0.1899    6.5374    2.1672 H   0  0  0  0  0  0  0  0  0  0  0  0
    4.5527    3.6237    2.7732 H   0  0  0  0  0  0  0  0  0  0  0  0
    3.9549    4.7573    4.0085 H   0  0  0  0  0  0  0  0  0  0  0  0
    4.4369    3.1080    4.4729 H   0  0  0  0  0  0  0  0  0  0  0  0
    0.2621    6.7242    5.5318 H   0  0  0  0  0  0  0  0  0  0  0  0
    0.4700    7.3903    3.8943 H   0  0  0  0  0  0  0  0  0  0  0  0
   -0.8066    6.1914    4.2119 H   0  0  0  0  0  0  0  0  0  0  0  0
   -0.6900    5.4206   -1.1384 H   0  0  0  0  0  0  0  0  0  0  0  0
    1.4302    6.6470   -2.0734 H   0  0  0  0  0  0  0  0  0  0  0  0
    0.6420   11.5247   -1.6432 H   0  0  0  0  0  0  0  0  0  0  0  0
   -2.3539    9.6315    1.2914 H   0  0  0  0  0  0  0  0  0  0  0  0
    2.8761   12.8125   -3.8219 H   0  0  0  0  0  0  0  0  0  0  0  0
    1.1816   12.4343   -3.4293 H   0  0  0  0  0  0  0  0  0  0  0  0
    2.3987   12.5159   -2.1330 H   0  0  0  0  0  0  0  0  0  0  0  0
    3.3889    6.3375   -2.6718 H   0  0  0  0  0  0  0  0  0  0  0  0
    2.1721    6.2554   -3.9683 H   0  0  0  0  0  0  0  0  0  0  0  0
    3.8891    6.4925   -4.3730 H   0  0  0  0  0  0  0  0  0  0  0  0
  1  2  1  0  0  0  0
  1 30  1  0  0  0  0
  1 31  1  0  0  0  0
  1 32  1  0  0  0  0
  2  3  1  0  0  0  0
  3  8  2  0  0  0  0
  3  4  1  0  0  0  0
  4  5  2  0  0  0  0
  4 33  1  0  0  0  0
  5  6  1  0  0  0  0
  5 13  1  0  0  0  0
  6  7  2  0  0  0  0
  6 34  1  0  0  0  0
  7  8  1  0  0  0  0
  7 11  1  0  0  0  0
  8  9  1  0  0  0  0
  9 10  1  0  0  0  0
 10 35  1  0  0  0  0
 10 36  1  0  0  0  0
 10 37  1  0  0  0  0
 11 12  1  0  0  0  0
 12 38  1  0  0  0  0
 12 39  1  0  0  0  0
 12 40  1  0  0  0  0
 13 14  1  0  0  0  0
 13 41  1  0  0  0  0
 14 23  2  0  0  0  0
 14 15  1  0  0  0  0
 15 20  2  0  0  0  0
 15 16  1  0  0  0  0
 16 17  2  0  0  0  0
 16 42  1  0  0  0  0
 17 18  1  0  0  0  0
 17 28  1  0  0  0  0
 18 19  2  0  0  0  0
 18 26  1  0  0  0  0
 19 20  1  0  0  0  0
 19 43  1  0  0  0  0
 20 21  1  0  0  0  0
 21 22  2  0  0  0  0
 22 23  1  0  0  0  0
 22 44  1  0  0  0  0
 23 24  1  0  0  0  0
 24 25  3  0  0  0  0
 26 27  1  0  0  0  0
 27 45  1  0  0  0  0
 27 46  1  0  0  0  0
 27 47  1  0  0  0  0
 28 29  1  0  0  0  0
 29 48  1  0  0  0  0
 29 49  1  0  0  0  0
 29 50  1  0  0  0  0
M  END
$$$$
ZINC03832345
  -OEChem-08230709403D

 53 55  0     0  0  0  0  0  0999 V2000
    0.8052    1.3871   -3.1379 C   0  0  0  0  0  0  0  0  0  0  0  0
    0.5628    2.2821   -1.9210 C   0  0  0  0  0  0  0  0  0  0  0  0
    0.5234    3.6491   -2.3354 O   0  0  0  0  0  0  0  0  0  0  0  0
    0.3143    4.5830   -1.3667 C   0  0  0  0  0  0  0  0  0  0  0  0
   -0.9800    4.9773   -1.0489 C   0  0  0  0  0  0  0  0  0  0  0  0
   -1.1924    5.9239   -0.0591 C   0  0  0  0  0  0  0  0  0  0  0  0
   -0.1118    6.4865    0.6073 C   0  0  0  0  0  0  0  0  0  0  0  0
    1.1818    6.0969    0.2866 C   0  0  0  0  0  0  0  0  0  0  0  0
    1.3953    5.1465   -0.6993 C   0  0  0  0  0  0  0  0  0  0  0  0
    2.6624    4.7650   -1.0132 O   0  0  0  0  0  0  0  0  0  0  0  0
    3.7254    5.3854   -0.2871 C   0  0  0  0  0  0  0  0  0  0  0  0
   -0.3267    7.4460    1.6027 N   0  0  0  0  0  0  0  0  0  0  0  0
    0.7475    8.0830    2.1906 C   0  0  0  0  0  0  0  0  0  0  0  0
    0.9887    9.4595    1.9733 C   0  0  0  0  0  0  0  0  0  0  0  0
    0.1432   10.2208    1.1524 C   0  0  0  0  0  0  0  0  0  0  0  0
    0.3986   11.5477    0.9598 C   0  0  0  0  0  0  0  0  0  0  0  0
    1.5004   12.1592    1.5746 C   0  0  0  0  0  0  0  0  0  0  0  0
    2.3452   11.4347    2.3840 C   0  0  0  0  0  0  0  0  0  0  0  0
    2.1034   10.0687    2.5979 C   0  0  0  0  0  0  0  0  0  0  0  0
    2.9160    9.3464    3.3832 N   0  0  0  0  0  0  0  0  0  0  0  0
    2.7170    8.0716    3.6013 C   0  0  0  0  0  0  0  0  0  0  0  0
    1.6329    7.3875    3.0281 C   0  0  0  0  0  0  0  0  0  0  0  0
    1.4366    5.9935    3.2904 C   0  0  0  0  0  0  0  0  0  0  0  0
    1.2809    4.8876    3.4984 N   0  0  0  0  0  0  0  0  0  0  0  0
    1.7368   13.4810    1.3687 O   0  0  0  0  0  0  0  0  0  0  0  0
    2.8751   14.0460    2.0222 C   0  0  0  0  0  0  0  0  0  0  0  0
   -0.4229   12.2833    0.1640 O   0  0  0  0  0  0  0  0  0  0  0  0
   -1.5279   11.6021   -0.4334 C   0  0  0  0  0  0  0  0  0  0  0  0
   -2.0381    4.4306   -1.7054 O   0  0  0  0  0  0  0  0  0  0  0  0
   -3.3279    4.9796   -1.4278 C   0  0  0  0  0  0  0  0  0  0  0  0
   -0.0019    1.5255   -3.8573 H   0  0  0  0  0  0  0  0  0  0  0  0
    1.7549    1.6537   -3.6017 H   0  0  0  0  0  0  0  0  0  0  0  0
    0.8353    0.3443   -2.8218 H   0  0  0  0  0  0  0  0  0  0  0  0
   -0.3869    2.0155   -1.4572 H   0  0  0  0  0  0  0  0  0  0  0  0
    1.3699    2.1437   -1.2016 H   0  0  0  0  0  0  0  0  0  0  0  0
   -2.1983    6.2274    0.1908 H   0  0  0  0  0  0  0  0  0  0  0  0
    2.0218    6.5348    0.8053 H   0  0  0  0  0  0  0  0  0  0  0  0
    4.6807    4.9923   -0.6348 H   0  0  0  0  0  0  0  0  0  0  0  0
    3.6954    6.4629   -0.4488 H   0  0  0  0  0  0  0  0  0  0  0  0
    3.6109    5.1742    0.7761 H   0  0  0  0  0  0  0  0  0  0  0  0
   -1.2305    7.6635    1.8796 H   0  0  0  0  0  0  0  0  0  0  0  0
   -0.7076    9.7582    0.6745 H   0  0  0  0  0  0  0  0  0  0  0  0
    3.1913   11.9152    2.8526 H   0  0  0  0  0  0  0  0  0  0  0  0
    3.4002    7.5337    4.2418 H   0  0  0  0  0  0  0  0  0  0  0  0
    2.7684   13.9321    3.1010 H   0  0  0  0  0  0  0  0  0  0  0  0
    3.7771   13.5320    1.6900 H   0  0  0  0  0  0  0  0  0  0  0  0
    2.9481   15.1049    1.7741 H   0  0  0  0  0  0  0  0  0  0  0  0
   -2.1007   12.3024   -1.0414 H   0  0  0  0  0  0  0  0  0  0  0  0
   -1.1585   10.7924   -1.0627 H   0  0  0  0  0  0  0  0  0  0  0  0
   -2.1675   11.1920    0.3481 H   0  0  0  0  0  0  0  0  0  0  0  0
   -3.5487    4.8696   -0.3661 H   0  0  0  0  0  0  0  0  0  0  0  0
   -3.3375    6.0367   -1.6933 H   0  0  0  0  0  0  0  0  0  0  0  0
   -4.0811    4.4513   -2.0123 H   0  0  0  0  0  0  0  0  0  0  0  0
  1  2  1  0  0  0  0
  1 31  1  0  0  0  0
  1 32  1  0  0  0  0
  1 33  1  0  0  0  0
  2  3  1  0  0  0  0
  2 34  1  0  0  0  0
  2 35  1  0  0  0  0
  3  4  1  0  0  0  0
  4  9  2  0  0  0  0
  4  5  1  0  0  0  0
  5  6  2  0  0  0  0
  5 29  1  0  0  0  0
  6  7  1  0  0  0  0
  6 36  1  0  0  0  0
  7  8  2  0  0  0  0
  7 12  1  0  0  0  0
  8  9  1  0  0  0  0
  8 37  1  0  0  0  0
  9 10  1  0  0  0  0
 10 11  1  0  0  0  0
 11 38  1  0  0  0  0
 11 39  1  0  0  0  0
 11 40  1  0  0  0  0
 12 13  1  0  0  0  0
 12 41  1  0  0  0  0
 13 22  2  0  0  0  0
 13 14  1  0  0  0  0
 14 19  2  0  0  0  0
 14 15  1  0  0  0  0
 15 16  2  0  0  0  0
 15 42  1  0  0  0  0
 16 17  1  0  0  0  0
 16 27  1  0  0  0  0
 17 18  2  0  0  0  0
 17 25  1  0  0  0  0
 18 19  1  0  0  0  0
 18 43  1  0  0  0  0
 19 20  1  0  0  0  0
 20 21  2  0  0  0  0
 21 22  1  0  0  0  0
 21 44  1  0  0  0  0
 22 23  1  0  0  0  0
 23 24  3  0  0  0  0
 25 26  1  0  0  0  0
 26 45  1  0  0  0  0
 26 46  1  0  0  0  0
 26 47  1  0  0  0  0
 27 28  1  0  0  0  0
 28 48  1  0  0  0  0
 28 49  1  0  0  0  0
 28 50  1  0  0  0  0
 29 30  1  0  0  0  0
 30 51  1  0  0  0  0
 30 52  1  0  0  0  0
 30 53  1  0  0  0  0
M  END
$$$$
ZINC03832346
  -OEChem-08230709403D

 50 53  0     0  0  0  0  0  0999 V2000
   -3.3595   13.6914    2.0937 C   0  0  0  0  0  0  0  0  0  0  0  0
   -2.0992   13.3875    1.2812 C   0  0  0  0  0  0  0  0  0  0  0  0
   -1.9342   11.9498    1.1634 O   0  0  0  0  0  0  0  0  0  0  0  0
   -0.8639   11.5114    0.4719 C   0  0  0  0  0  0  0  0  0  0  0  0
   -0.0896   12.3088   -0.0192 O   0  0  0  0  0  0  0  0  0  0  0  0
   -0.6323   10.0644    0.3112 C   0  0  0  0  0  0  0  0  0  0  0  0
    0.4778    9.6078   -0.4061 C   0  0  0  0  0  0  0  0  0  0  0  0
    0.6912    8.2564   -0.5538 C   0  0  0  0  0  0  0  0  0  0  0  0
   -0.1963    7.3442    0.0102 C   0  0  0  0  0  0  0  0  0  0  0  0
   -1.3056    7.7954    0.7201 C   0  0  0  0  0  0  0  0  0  0  0  0
   -1.5221    9.1454    0.8760 C   0  0  0  0  0  0  0  0  0  0  0  0
    0.0228    5.9778   -0.1407 N   0  0  0  0  0  0  0  0  0  0  0  0
   -0.3248    5.1058    0.8740 C   0  0  0  0  0  0  0  0  0  0  0  0
   -0.7624    5.6050    2.0249 N   0  0  0  0  0  0  0  0  0  0  0  0
   -1.1070    4.8159    3.0249 C   0  0  0  0  0  0  0  0  0  0  0  0
   -1.0027    3.4273    2.8512 C   0  0  0  0  0  0  0  0  0  0  0  0
   -1.3564    2.5311    3.8857 C   0  0  0  0  0  0  0  0  0  0  0  0
   -1.2364    1.1849    3.6674 C   0  0  0  0  0  0  0  0  0  0  0  0
   -0.7465    0.7073    2.3725 C   0  0  0  0  0  0  0  0  0  0  0  0
   -0.6371   -0.4888    2.1696 O   0  0  0  0  0  0  0  0  0  0  0  0
   -0.4168    1.5841    1.4046 N   0  0  0  0  0  0  0  0  0  0  0  0
   -0.5288    2.9351    1.6162 C   0  0  0  0  0  0  0  0  0  0  0  0
   -0.2090    3.8040    0.6635 N   0  0  0  0  0  0  0  0  0  0  0  0
    0.0721    1.0904    0.1149 C   0  0  0  0  0  0  0  0  0  0  0  0
   -1.5985    0.2199    4.7317 C   0  0  0  0  0  0  0  0  0  0  0  0
   -0.6360   -0.2071    5.6475 C   0  0  0  0  0  0  0  0  0  0  0  0
   -0.9815   -1.1024    6.6408 C   0  0  0  0  0  0  0  0  0  0  0  0
   -2.2755   -1.5846    6.7220 C   0  0  0  0  0  0  0  0  0  0  0  0
   -3.2329   -1.1698    5.8138 C   0  0  0  0  0  0  0  0  0  0  0  0
   -2.9020   -0.2704    4.8192 C   0  0  0  0  0  0  0  0  0  0  0  0
   -4.1049    0.2485    3.6802 Cl  0  0  0  0  0  0  0  0  0  0  0  0
    0.9902    0.3914    5.5429 Cl  0  0  0  0  0  0  0  0  0  0  0  0
   -3.4833   14.7707    2.1821 H   0  0  0  0  0  0  0  0  0  0  0  0
   -4.2277   13.2661    1.5902 H   0  0  0  0  0  0  0  0  0  0  0  0
   -3.2654   13.2539    3.0875 H   0  0  0  0  0  0  0  0  0  0  0  0
   -1.2310   13.8128    1.7846 H   0  0  0  0  0  0  0  0  0  0  0  0
   -2.1933   13.8251    0.2873 H   0  0  0  0  0  0  0  0  0  0  0  0
    1.1672   10.3149   -0.8433 H   0  0  0  0  0  0  0  0  0  0  0  0
    1.5484    7.9030   -1.1076 H   0  0  0  0  0  0  0  0  0  0  0  0
   -1.9946    7.0851    1.1526 H   0  0  0  0  0  0  0  0  0  0  0  0
   -2.3803    9.4947    1.4309 H   0  0  0  0  0  0  0  0  0  0  0  0
    0.4195    5.6376   -0.9579 H   0  0  0  0  0  0  0  0  0  0  0  0
   -1.4614    5.2299    3.9572 H   0  0  0  0  0  0  0  0  0  0  0  0
   -1.7161    2.9028    4.8338 H   0  0  0  0  0  0  0  0  0  0  0  0
    0.0992    0.0008    0.1296 H   0  0  0  0  0  0  0  0  0  0  0  0
    1.0755    1.4764   -0.0652 H   0  0  0  0  0  0  0  0  0  0  0  0
   -0.5945    1.4265   -0.6793 H   0  0  0  0  0  0  0  0  0  0  0  0
   -0.2387   -1.4302    7.3529 H   0  0  0  0  0  0  0  0  0  0  0  0
   -2.5393   -2.2883    7.4976 H   0  0  0  0  0  0  0  0  0  0  0  0
   -4.2413   -1.5503    5.8825 H   0  0  0  0  0  0  0  0  0  0  0  0
  1  2  1  0  0  0  0
  1 33  1  0  0  0  0
  1 34  1  0  0  0  0
  1 35  1  0  0  0  0
  2  3  1  0  0  0  0
  2 36  1  0  0  0  0
  2 37  1  0  0  0  0
  3  4  1  0  0  0  0
  4  5  2  0  0  0  0
  4  6  1  0  0  0  0
  6 11  2  0  0  0  0
  6  7  1  0  0  0  0
  7  8  2  0  0  0  0
  7 38  1  0  0  0  0
  8  9  1  0  0  0  0
  8 39  1  0  0  0  0
  9 10  2  0  0  0  0
  9 12  1  0  0  0  0
 10 11  1  0  0  0  0
 10 40  1  0  0  0  0
 11 41  1  0  0  0  0
 12 13  1  0  0  0  0
 12 42  1  0  0  0  0
 13 23  2  0  0  0  0
 13 14  1  0  0  0  0
 14 15  2  0  0  0  0
 15 16  1  0  0  0  0
 15 43  1  0  0  0  0
 16 22  2  0  0  0  0
 16 17  1  0  0  0  0
 17 18  2  0  0  0  0
 17 44  1  0  0  0  0
 18 19  1  0  0  0  0
 18 25  1  0  0  0  0
 19 20  2  0  0  0  0
 19 21  1  0  0  0  0
 21 22  1  0  0  0  0
 21 24  1  0  0  0  0
 22 23  1  0  0  0  0
 24 45  1  0  0  0  0
 24 46  1  0  0  0  0
 24 47  1  0  0  0  0
 25 30  2  0  0  0  0
 25 26  1  0  0  0  0
 26 27  2  0  0  0  0
 26 32  1  0  0  0  0
 27 28  1  0  0  0  0
 27 48  1  0  0  0  0
 28 29  2  0  0  0  0
 28 49  1  0  0  0  0
 29 30  1  0  0  0  0
 29 50  1  0  0  0  0
 30 31  1  0  0  0  0
M  END
$$$$
ZINC03832347
  -OEChem-08230709403D

 56 58  0     0  0  0  0  0  0999 V2000
   -0.5175    8.4800    5.6014 C   0  0  0  0  0  0  0  0  0  0  0  0
    0.7199    7.6049    5.3912 C   0  0  0  0  0  0  0  0  0  0  0  0
    1.4755    7.4638    6.7141 C   0  0  0  0  0  0  0  0  0  0  0  0
    0.3171    6.3128    4.9325 O   0  0  0  0  0  0  0  0  0  0  0  0
    0.2193    6.1377    3.5857 C   0  0  0  0  0  0  0  0  0  0  0  0
   -0.9813    6.3991    2.9360 C   0  0  0  0  0  0  0  0  0  0  0  0
   -1.0820    6.2143    1.5661 C   0  0  0  0  0  0  0  0  0  0  0  0
    0.0179    5.7739    0.8419 C   0  0  0  0  0  0  0  0  0  0  0  0
    1.2195    5.5189    1.4894 C   0  0  0  0  0  0  0  0  0  0  0  0
    1.3215    5.7029    2.8593 C   0  0  0  0  0  0  0  0  0  0  0  0
    2.4983    5.4527    3.4933 O   0  0  0  0  0  0  0  0  0  0  0  0
    3.5877    5.0029    2.6853 C   0  0  0  0  0  0  0  0  0  0  0  0
   -0.0846    5.5876   -0.5410 N   0  0  0  0  0  0  0  0  0  0  0  0
   -0.9054    6.4074   -1.2890 C   0  0  0  0  0  0  0  0  0  0  0  0
   -0.3753    7.4806   -2.0421 C   0  0  0  0  0  0  0  0  0  0  0  0
    1.0022    7.7459   -2.0522 C   0  0  0  0  0  0  0  0  0  0  0  0
    1.4877    8.7879   -2.7881 C   0  0  0  0  0  0  0  0  0  0  0  0
    0.6215    9.5986   -3.5353 C   0  0  0  0  0  0  0  0  0  0  0  0
   -0.7337    9.3599   -3.5421 C   0  0  0  0  0  0  0  0  0  0  0  0
   -1.2570    8.2941   -2.7937 C   0  0  0  0  0  0  0  0  0  0  0  0
   -2.5751    8.0465   -2.7877 N   0  0  0  0  0  0  0  0  0  0  0  0
   -3.0927    7.0609   -2.0999 C   0  0  0  0  0  0  0  0  0  0  0  0
   -2.2925    6.1999   -1.3317 C   0  0  0  0  0  0  0  0  0  0  0  0
   -2.8865    5.1255   -0.5945 C   0  0  0  0  0  0  0  0  0  0  0  0
   -3.3577    4.2732   -0.0096 N   0  0  0  0  0  0  0  0  0  0  0  0
    1.1255   10.6312   -4.2602 O   0  0  0  0  0  0  0  0  0  0  0  0
    0.1923   11.4209   -5.0001 C   0  0  0  0  0  0  0  0  0  0  0  0
    2.8234    9.0426   -2.7959 O   0  0  0  0  0  0  0  0  0  0  0  0
    3.6528    8.1806   -2.0143 C   0  0  0  0  0  0  0  0  0  0  0  0
   -2.0585    6.8303    3.6452 O   0  0  0  0  0  0  0  0  0  0  0  0
   -3.2952    6.9481    2.9390 C   0  0  0  0  0  0  0  0  0  0  0  0
   -0.2103    9.4656    5.9512 H   0  0  0  0  0  0  0  0  0  0  0  0
   -1.0558    8.5805    4.6589 H   0  0  0  0  0  0  0  0  0  0  0  0
   -1.1678    8.0174    6.3437 H   0  0  0  0  0  0  0  0  0  0  0  0
    1.3702    8.0675    4.6488 H   0  0  0  0  0  0  0  0  0  0  0  0
    2.3569    6.8404    6.5643 H   0  0  0  0  0  0  0  0  0  0  0  0
    1.7827    8.4494    7.0639 H   0  0  0  0  0  0  0  0  0  0  0  0
    0.8251    7.0012    7.4564 H   0  0  0  0  0  0  0  0  0  0  0  0
   -2.0161    6.4131    1.0618 H   0  0  0  0  0  0  0  0  0  0  0  0
    2.0746    5.1768    0.9254 H   0  0  0  0  0  0  0  0  0  0  0  0
    4.4635    4.8412    3.3137 H   0  0  0  0  0  0  0  0  0  0  0  0
    3.8158    5.7560    1.9310 H   0  0  0  0  0  0  0  0  0  0  0  0
    3.3148    4.0685    2.1950 H   0  0  0  0  0  0  0  0  0  0  0  0
    0.4212    4.8822   -0.9741 H   0  0  0  0  0  0  0  0  0  0  0  0
    1.6769    7.1269   -1.4794 H   0  0  0  0  0  0  0  0  0  0  0  0
   -1.3923    9.9906   -4.1208 H   0  0  0  0  0  0  0  0  0  0  0  0
   -4.1606    6.9025   -2.1281 H   0  0  0  0  0  0  0  0  0  0  0  0
    0.7249   12.2089   -5.5325 H   0  0  0  0  0  0  0  0  0  0  0  0
   -0.3314   10.7881   -5.7167 H   0  0  0  0  0  0  0  0  0  0  0  0
   -0.5285   11.8680   -4.3155 H   0  0  0  0  0  0  0  0  0  0  0  0
    3.3503    8.2354   -0.9686 H   0  0  0  0  0  0  0  0  0  0  0  0
    3.5481    7.1554   -2.3695 H   0  0  0  0  0  0  0  0  0  0  0  0
    4.6927    8.4933   -2.1086 H   0  0  0  0  0  0  0  0  0  0  0  0
   -4.0776    7.2681    3.6272 H   0  0  0  0  0  0  0  0  0  0  0  0
   -3.1896    7.6837    2.1416 H   0  0  0  0  0  0  0  0  0  0  0  0
   -3.5618    5.9824    2.5095 H   0  0  0  0  0  0  0  0  0  0  0  0
  1  2  1  0  0  0  0
  1 32  1  0  0  0  0
  1 33  1  0  0  0  0
  1 34  1  0  0  0  0
  2  3  1  0  0  0  0
  2  4  1  0  0  0  0
  2 35  1  0  0  0  0
  3 36  1  0  0  0  0
  3 37  1  0  0  0  0
  3 38  1  0  0  0  0
  4  5  1  0  0  0  0
  5 10  2  0  0  0  0
  5  6  1  0  0  0  0
  6  7  2  0  0  0  0
  6 30  1  0  0  0  0
  7  8  1  0  0  0  0
  7 39  1  0  0  0  0
  8  9  2  0  0  0  0
  8 13  1  0  0  0  0
  9 10  1  0  0  0  0
  9 40  1  0  0  0  0
 10 11  1  0  0  0  0
 11 12  1  0  0  0  0
 12 41  1  0  0  0  0
 12 42  1  0  0  0  0
 12 43  1  0  0  0  0
 13 14  1  0  0  0  0
 13 44  1  0  0  0  0
 14 23  2  0  0  0  0
 14 15  1  0  0  0  0
 15 20  2  0  0  0  0
 15 16  1  0  0  0  0
 16 17  2  0  0  0  0
 16 45  1  0  0  0  0
 17 18  1  0  0  0  0
 17 28  1  0  0  0  0
 18 19  2  0  0  0  0
 18 26  1  0  0  0  0
 19 20  1  0  0  0  0
 19 46  1  0  0  0  0
 20 21  1  0  0  0  0
 21 22  2  0  0  0  0
 22 23  1  0  0  0  0
 22 47  1  0  0  0  0
 23 24  1  0  0  0  0
 24 25  3  0  0  0  0
 26 27  1  0  0  0  0
 27 48  1  0  0  0  0
 27 49  1  0  0  0  0
 27 50  1  0  0  0  0
 28 29  1  0  0  0  0
 29 51  1  0  0  0  0
 29 52  1  0  0  0  0
 29 53  1  0  0  0  0
 30 31  1  0  0  0  0
 31 54  1  0  0  0  0
 31 55  1  0  0  0  0
 31 56  1  0  0  0  0
M  END
$$$$
ZINC03832348
  -OEChem-08230709403D

 50 53  0     0  0  0  0  0  0999 V2000
    4.1418   -4.0022    3.1334 C   0  0  0  0  0  0  0  0  0  0  0  0
    2.8811   -4.8610    3.0140 C   0  0  0  0  0  0  0  0  0  0  0  0
    1.8942   -4.1627    2.2098 O   0  0  0  0  0  0  0  0  0  0  0  0
    0.7180   -4.7871    2.0068 C   0  0  0  0  0  0  0  0  0  0  0  0
    0.5222   -5.8850    2.4883 O   0  0  0  0  0  0  0  0  0  0  0  0
   -0.3338   -4.1367    1.1984 C   0  0  0  0  0  0  0  0  0  0  0  0
   -0.1133   -2.8720    0.6484 C   0  0  0  0  0  0  0  0  0  0  0  0
   -1.0949   -2.2695   -0.1114 C   0  0  0  0  0  0  0  0  0  0  0  0
   -2.3031   -2.9081   -0.3209 C   0  0  0  0  0  0  0  0  0  0  0  0
   -2.5348   -4.1643    0.2267 C   0  0  0  0  0  0  0  0  0  0  0  0
   -1.5527   -4.7813    0.9866 C   0  0  0  0  0  0  0  0  0  0  0  0
   -3.7586   -4.8058    0.0117 N   0  0  0  0  0  0  0  0  0  0  0  0
   -3.8070   -6.1823   -0.0995 C   0  0  0  0  0  0  0  0  0  0  0  0
   -2.6662   -6.8635   -0.1167 N   0  0  0  0  0  0  0  0  0  0  0  0
   -2.6578   -8.1793   -0.2164 C   0  0  0  0  0  0  0  0  0  0  0  0
   -3.8847   -8.8533   -0.3155 C   0  0  0  0  0  0  0  0  0  0  0  0
   -3.9397  -10.2611   -0.4303 C   0  0  0  0  0  0  0  0  0  0  0  0
   -5.1614  -10.8721   -0.5243 C   0  0  0  0  0  0  0  0  0  0  0  0
   -6.3770  -10.0555   -0.5041 C   0  0  0  0  0  0  0  0  0  0  0  0
   -7.4680  -10.5909   -0.5867 O   0  0  0  0  0  0  0  0  0  0  0  0
   -6.2947   -8.7156   -0.3941 N   0  0  0  0  0  0  0  0  0  0  0  0
   -5.0748   -8.0948   -0.2990 C   0  0  0  0  0  0  0  0  0  0  0  0
   -4.9881   -6.7736   -0.1903 N   0  0  0  0  0  0  0  0  0  0  0  0
   -7.5201   -7.9130   -0.3754 C   0  0  0  0  0  0  0  0  0  0  0  0
   -5.2528  -12.3458   -0.6457 C   0  0  0  0  0  0  0  0  0  0  0  0
   -5.2570  -12.9462   -1.9054 C   0  0  0  0  0  0  0  0  0  0  0  0
   -5.3366  -14.3210   -2.0115 C   0  0  0  0  0  0  0  0  0  0  0  0
   -5.4236  -15.1016   -0.8728 C   0  0  0  0  0  0  0  0  0  0  0  0
   -5.4256  -14.5124    0.3787 C   0  0  0  0  0  0  0  0  0  0  0  0
   -5.3407  -13.1391    0.4989 C   0  0  0  0  0  0  0  0  0  0  0  0
   -5.3440  -12.4016    2.0704 Cl  0  0  0  0  0  0  0  0  0  0  0  0
   -5.1553  -11.9677   -3.3358 Cl  0  0  0  0  0  0  0  0  0  0  0  0
    3.8915   -3.0536    3.6083 H   0  0  0  0  0  0  0  0  0  0  0  0
    4.8826   -4.5265    3.7371 H   0  0  0  0  0  0  0  0  0  0  0  0
    4.5493   -3.8149    2.1400 H   0  0  0  0  0  0  0  0  0  0  0  0
    2.4737   -5.0483    4.0074 H   0  0  0  0  0  0  0  0  0  0  0  0
    3.1314   -5.8096    2.5391 H   0  0  0  0  0  0  0  0  0  0  0  0
    0.8272   -2.3675    0.8140 H   0  0  0  0  0  0  0  0  0  0  0  0
   -0.9208   -1.2934   -0.5395 H   0  0  0  0  0  0  0  0  0  0  0  0
   -3.0694   -2.4293   -0.9124 H   0  0  0  0  0  0  0  0  0  0  0  0
   -1.7307   -5.7576    1.4127 H   0  0  0  0  0  0  0  0  0  0  0  0
   -4.5736   -4.2846   -0.0594 H   0  0  0  0  0  0  0  0  0  0  0  0
   -1.7262   -8.7256   -0.2255 H   0  0  0  0  0  0  0  0  0  0  0  0
   -3.0319  -10.8460   -0.4431 H   0  0  0  0  0  0  0  0  0  0  0  0
   -7.7859   -7.6320   -1.3944 H   0  0  0  0  0  0  0  0  0  0  0  0
   -8.3296   -8.4961    0.0636 H   0  0  0  0  0  0  0  0  0  0  0  0
   -7.3565   -7.0139    0.2186 H   0  0  0  0  0  0  0  0  0  0  0  0
   -5.3356  -14.7872   -2.9856 H   0  0  0  0  0  0  0  0  0  0  0  0
   -5.4905  -16.1759   -0.9614 H   0  0  0  0  0  0  0  0  0  0  0  0
   -5.4940  -15.1276    1.2637 H   0  0  0  0  0  0  0  0  0  0  0  0
  1  2  1  0  0  0  0
  1 33  1  0  0  0  0
  1 34  1  0  0  0  0
  1 35  1  0  0  0  0
  2  3  1  0  0  0  0
  2 36  1  0  0  0  0
  2 37  1  0  0  0  0
  3  4  1  0  0  0  0
  4  5  2  0  0  0  0
  4  6  1  0  0  0  0
  6 11  2  0  0  0  0
  6  7  1  0  0  0  0
  7  8  2  0  0  0  0
  7 38  1  0  0  0  0
  8  9  1  0  0  0  0
  8 39  1  0  0  0  0
  9 10  2  0  0  0  0
  9 40  1  0  0  0  0
 10 11  1  0  0  0  0
 10 12  1  0  0  0  0
 11 41  1  0  0  0  0
 12 13  1  0  0  0  0
 12 42  1  0  0  0  0
 13 23  2  0  0  0  0
 13 14  1  0  0  0  0
 14 15  2  0  0  0  0
 15 16  1  0  0  0  0
 15 43  1  0  0  0  0
 16 22  2  0  0  0  0
 16 17  1  0  0  0  0
 17 18  2  0  0  0  0
 17 44  1  0  0  0  0
 18 19  1  0  0  0  0
 18 25  1  0  0  0  0
 19 20  2  0  0  0  0
 19 21  1  0  0  0  0
 21 22  1  0  0  0  0
 21 24  1  0  0  0  0
 22 23  1  0  0  0  0
 24 45  1  0  0  0  0
 24 46  1  0  0  0  0
 24 47  1  0  0  0  0
 25 30  2  0  0  0  0
 25 26  1  0  0  0  0
 26 27  2  0  0  0  0
 26 32  1  0  0  0  0
 27 28  1  0  0  0  0
 27 48  1  0  0  0  0
 28 29  2  0  0  0  0
 28 49  1  0  0  0  0
 29 30  1  0  0  0  0
 29 50  1  0  0  0  0
 30 31  1  0  0  0  0
M  END
$$$$
ZINC03832349
  -OEChem-08230709403D

 50 52  0     0  0  0  0  0  0999 V2000
   -0.5552    7.3358   -0.6791 C   0  0  0  0  0  0  0  0  0  0  0  0
   -1.7385    6.5364   -0.7328 O   0  0  0  0  0  0  0  0  0  0  0  0
   -1.5880    5.1977   -0.5479 C   0  0  0  0  0  0  0  0  0  0  0  0
   -0.3441    4.6814   -0.3238 C   0  0  0  0  0  0  0  0  0  0  0  0
   -0.1857    3.3010   -0.1327 C   0  0  0  0  0  0  0  0  0  0  0  0
   -1.3150    2.4479   -0.1723 C   0  0  0  0  0  0  0  0  0  0  0  0
   -2.5829    3.0023   -0.4043 C   0  0  0  0  0  0  0  0  0  0  0  0
   -2.7113    4.3603   -0.5891 C   0  0  0  0  0  0  0  0  0  0  0  0
   -3.9399    4.8948   -0.8135 O   0  0  0  0  0  0  0  0  0  0  0  0
   -5.0454    3.9898   -0.8436 C   0  0  0  0  0  0  0  0  0  0  0  0
   -1.1697    1.1263    0.0047 N   0  0  0  0  0  0  0  0  0  0  0  0
   -0.0015    0.5807    0.2283 C   0  0  0  0  0  0  0  0  0  0  0  0
    1.1716    1.3503    0.2839 C   0  0  0  0  0  0  0  0  0  0  0  0
    1.0910    2.7393    0.1013 C   0  0  0  0  0  0  0  0  0  0  0  0
    2.2204    3.5313    0.1489 N   0  0  0  0  0  0  0  0  0  0  0  0
    3.4778    2.9732   -0.1081 C   0  0  0  0  0  0  0  0  0  0  0  0
    4.4170    2.8795    0.9105 C   0  0  0  0  0  0  0  0  0  0  0  0
    5.6602    2.3218    0.6581 C   0  0  0  0  0  0  0  0  0  0  0  0
    5.9714    1.8660   -0.6177 C   0  0  0  0  0  0  0  0  0  0  0  0
    5.0335    1.9650   -1.6382 C   0  0  0  0  0  0  0  0  0  0  0  0
    3.7879    2.5185   -1.3833 C   0  0  0  0  0  0  0  0  0  0  0  0
    2.5113    2.6535   -2.7717 Br  0  0  0  0  0  0  0  0  0  0  0  0
    5.3371    1.5189   -2.8867 O   0  0  0  0  0  0  0  0  0  0  0  0
    6.0275    2.4250   -3.7494 C   0  0  0  0  0  0  0  0  0  0  0  0
    7.1946    1.3222   -0.8672 O   0  0  0  0  0  0  0  0  0  0  0  0
    7.3442   -0.0778   -0.6228 C   0  0  0  0  0  0  0  0  0  0  0  0
    6.5779    2.2255    1.6573 O   0  0  0  0  0  0  0  0  0  0  0  0
    6.1520    2.6034    2.9680 C   0  0  0  0  0  0  0  0  0  0  0  0
    2.4369    0.7244    0.5249 C   0  0  0  0  0  0  0  0  0  0  0  0
    3.4406    0.2279    0.7160 N   0  0  0  0  0  0  0  0  0  0  0  0
   -0.0866    7.2261    0.2989 H   0  0  0  0  0  0  0  0  0  0  0  0
    0.1392    7.0095   -1.4534 H   0  0  0  0  0  0  0  0  0  0  0  0
   -0.8156    8.3817   -0.8420 H   0  0  0  0  0  0  0  0  0  0  0  0
    0.5158    5.3342   -0.2942 H   0  0  0  0  0  0  0  0  0  0  0  0
   -3.4550    2.3660   -0.4373 H   0  0  0  0  0  0  0  0  0  0  0  0
   -5.9645    4.5450   -1.0307 H   0  0  0  0  0  0  0  0  0  0  0  0
   -4.8947    3.2584   -1.6376 H   0  0  0  0  0  0  0  0  0  0  0  0
   -5.1202    3.4756    0.1146 H   0  0  0  0  0  0  0  0  0  0  0  0
    0.0625   -0.4881    0.3690 H   0  0  0  0  0  0  0  0  0  0  0  0
    2.1426    4.4747    0.3606 H   0  0  0  0  0  0  0  0  0  0  0  0
    4.1770    3.2376    1.9008 H   0  0  0  0  0  0  0  0  0  0  0  0
    5.4635    3.3546   -3.8262 H   0  0  0  0  0  0  0  0  0  0  0  0
    7.0167    2.6328   -3.3414 H   0  0  0  0  0  0  0  0  0  0  0  0
    6.1290    1.9787   -4.7387 H   0  0  0  0  0  0  0  0  0  0  0  0
    6.7047   -0.6363   -1.3062 H   0  0  0  0  0  0  0  0  0  0  0  0
    8.3837   -0.3652   -0.7812 H   0  0  0  0  0  0  0  0  0  0  0  0
    7.0586   -0.2997    0.4055 H   0  0  0  0  0  0  0  0  0  0  0  0
    6.9765    2.4745    3.6692 H   0  0  0  0  0  0  0  0  0  0  0  0
    5.8403    3.6479    2.9616 H   0  0  0  0  0  0  0  0  0  0  0  0
    5.3144    1.9761    3.2728 H   0  0  0  0  0  0  0  0  0  0  0  0
  1  2  1  0  0  0  0
  1 31  1  0  0  0  0
  1 32  1  0  0  0  0
  1 33  1  0  0  0  0
  2  3  1  0  0  0  0
  3  8  2  0  0  0  0
  3  4  1  0  0  0  0
  4  5  2  0  0  0  0
  4 34  1  0  0  0  0
  5 14  1  0  0  0  0
  5  6  1  0  0  0  0
  6  7  2  0  0  0  0
  6 11  1  0  0  0  0
  7  8  1  0  0  0  0
  7 35  1  0  0  0  0
  8  9  1  0  0  0  0
  9 10  1  0  0  0  0
 10 36  1  0  0  0  0
 10 37  1  0  0  0  0
 10 38  1  0  0  0  0
 11 12  2  0  0  0  0
 12 13  1  0  0  0  0
 12 39  1  0  0  0  0
 13 14  2  0  0  0  0
 13 29  1  0  0  0  0
 14 15  1  0  0  0  0
 15 16  1  0  0  0  0
 15 40  1  0  0  0  0
 16 21  2  0  0  0  0
 16 17  1  0  0  0  0
 17 18  2  0  0  0  0
 17 41  1  0  0  0  0
 18 19  1  0  0  0  0
 18 27  1  0  0  0  0
 19 20  2  0  0  0  0
 19 25  1  0  0  0  0
 20 21  1  0  0  0  0
 20 23  1  0  0  0  0
 21 22  1  0  0  0  0
 23 24  1  0  0  0  0
 24 42  1  0  0  0  0
 24 43  1  0  0  0  0
 24 44  1  0  0  0  0
 25 26  1  0  0  0  0
 26 45  1  0  0  0  0
 26 46  1  0  0  0  0
 26 47  1  0  0  0  0
 27 28  1  0  0  0  0
 28 48  1  0  0  0  0
 28 49  1  0  0  0  0
 28 50  1  0  0  0  0
 29 30  3  0  0  0  0
M  END
$$$$
ZINC03832350
  -OEChem-08230709403D

 49 51  0     0  0  0  0  0  0999 V2000
   -4.2498    5.8113    1.7642 C   0  0  0  0  0  0  0  0  0  0  0  0
   -3.5615    4.6846    2.3109 O   0  0  0  0  0  0  0  0  0  0  0  0
   -2.2868    4.4742    1.8861 C   0  0  0  0  0  0  0  0  0  0  0  0
   -1.7128    5.3344    0.9633 C   0  0  0  0  0  0  0  0  0  0  0  0
   -0.4111    5.1200    0.5299 C   0  0  0  0  0  0  0  0  0  0  0  0
    0.3163    4.0438    1.0206 C   0  0  0  0  0  0  0  0  0  0  0  0
   -0.2566    3.1828    1.9434 C   0  0  0  0  0  0  0  0  0  0  0  0
   -1.5575    3.3999    2.3816 C   0  0  0  0  0  0  0  0  0  0  0  0
   -2.1191    2.5574    3.2921 O   0  0  0  0  0  0  0  0  0  0  0  0
   -2.8223    1.4238    2.7797 C   0  0  0  0  0  0  0  0  0  0  0  0
    0.4562    2.1292    2.4243 O   0  0  0  0  0  0  0  0  0  0  0  0
    1.7892    1.9701    1.9346 C   0  0  0  0  0  0  0  0  0  0  0  0
    0.1676    5.9885   -0.4020 N   0  0  0  0  0  0  0  0  0  0  0  0
   -0.0303    7.3575   -0.2909 C   0  0  0  0  0  0  0  0  0  0  0  0
   -0.6651    7.9007    0.8161 C   0  0  0  0  0  0  0  0  0  0  0  0
   -0.8484    9.2736    0.8984 C   0  0  0  0  0  0  0  0  0  0  0  0
   -0.4359   10.0856   -0.0475 N   0  0  0  0  0  0  0  0  0  0  0  0
    0.1839    9.6311   -1.1432 C   0  0  0  0  0  0  0  0  0  0  0  0
    0.4142    8.2430   -1.3003 C   0  0  0  0  0  0  0  0  0  0  0  0
    1.0697    7.7699   -2.4466 C   0  0  0  0  0  0  0  0  0  0  0  0
    1.4854    8.6535   -3.4003 C   0  0  0  0  0  0  0  0  0  0  0  0
    1.2635   10.0294   -3.2454 C   0  0  0  0  0  0  0  0  0  0  0  0
    0.6187   10.5153   -2.1448 C   0  0  0  0  0  0  0  0  0  0  0  0
    1.6871   10.8894   -4.2085 O   0  0  0  0  0  0  0  0  0  0  0  0
    1.4325   12.2793   -3.9947 C   0  0  0  0  0  0  0  0  0  0  0  0
    2.1213    8.1950   -4.5114 O   0  0  0  0  0  0  0  0  0  0  0  0
    2.3177    6.7830   -4.6103 C   0  0  0  0  0  0  0  0  0  0  0  0
   -5.2536    5.8634    2.1857 H   0  0  0  0  0  0  0  0  0  0  0  0
   -4.3155    5.7065    0.6812 H   0  0  0  0  0  0  0  0  0  0  0  0
   -3.7053    6.7234    2.0086 H   0  0  0  0  0  0  0  0  0  0  0  0
   -2.2781    6.1714    0.5810 H   0  0  0  0  0  0  0  0  0  0  0  0
    1.3287    3.8778    0.6834 H   0  0  0  0  0  0  0  0  0  0  0  0
   -3.6435    1.7611    2.1472 H   0  0  0  0  0  0  0  0  0  0  0  0
   -2.1407    0.8083    2.1926 H   0  0  0  0  0  0  0  0  0  0  0  0
   -3.2191    0.8373    3.6083 H   0  0  0  0  0  0  0  0  0  0  0  0
    1.7657    1.8386    0.8529 H   0  0  0  0  0  0  0  0  0  0  0  0
    2.3746    2.8562    2.1802 H   0  0  0  0  0  0  0  0  0  0  0  0
    2.2442    1.0943    2.3973 H   0  0  0  0  0  0  0  0  0  0  0  0
    0.7072    5.6337   -1.1258 H   0  0  0  0  0  0  0  0  0  0  0  0
   -1.0154    7.2580    1.6102 H   0  0  0  0  0  0  0  0  0  0  0  0
   -1.3439    9.6859    1.7649 H   0  0  0  0  0  0  0  0  0  0  0  0
    1.2444    6.7118   -2.5741 H   0  0  0  0  0  0  0  0  0  0  0  0
    0.4544   11.5774   -2.0382 H   0  0  0  0  0  0  0  0  0  0  0  0
    0.3584   12.4428   -3.9079 H   0  0  0  0  0  0  0  0  0  0  0  0
    1.9245   12.6018   -3.0771 H   0  0  0  0  0  0  0  0  0  0  0  0
    1.8206   12.8533   -4.8361 H   0  0  0  0  0  0  0  0  0  0  0  0
    2.8351    6.5525   -5.5416 H   0  0  0  0  0  0  0  0  0  0  0  0
    2.9171    6.4396   -3.7671 H   0  0  0  0  0  0  0  0  0  0  0  0
    1.3509    6.2799   -4.5977 H   0  0  0  0  0  0  0  0  0  0  0  0
  1  2  1  0  0  0  0
  1 28  1  0  0  0  0
  1 29  1  0  0  0  0
  1 30  1  0  0  0  0
  2  3  1  0  0  0  0
  3  8  2  0  0  0  0
  3  4  1  0  0  0  0
  4  5  2  0  0  0  0
  4 31  1  0  0  0  0
  5  6  1  0  0  0  0
  5 13  1  0  0  0  0
  6  7  2  0  0  0  0
  6 32  1  0  0  0  0
  7  8  1  0  0  0  0
  7 11  1  0  0  0  0
  8  9  1  0  0  0  0
  9 10  1  0  0  0  0
 10 33  1  0  0  0  0
 10 34  1  0  0  0  0
 10 35  1  0  0  0  0
 11 12  1  0  0  0  0
 12 36  1  0  0  0  0
 12 37  1  0  0  0  0
 12 38  1  0  0  0  0
 13 14  1  0  0  0  0
 13 39  1  0  0  0  0
 14 19  2  0  0  0  0
 14 15  1  0  0  0  0
 15 16  2  0  0  0  0
 15 40  1  0  0  0  0
 16 17  1  0  0  0  0
 16 41  1  0  0  0  0
 17 18  2  0  0  0  0
 18 23  1  0  0  0  0
 18 19  1  0  0  0  0
 19 20  1  0  0  0  0
 20 21  2  0  0  0  0
 20 42  1  0  0  0  0
 21 22  1  0  0  0  0
 21 26  1  0  0  0  0
 22 23  2  0  0  0  0
 22 24  1  0  0  0  0
 23 43  1  0  0  0  0
 24 25  1  0  0  0  0
 25 44  1  0  0  0  0
 25 45  1  0  0  0  0
 25 46  1  0  0  0  0
 26 27  1  0  0  0  0
 27 47  1  0  0  0  0
 27 48  1  0  0  0  0
 27 49  1  0  0  0  0
M  END
$$$$
ZINC03832351
  -OEChem-08230709403D

 55 59  0     0  0  0  0  0  0999 V2000
   -3.0546   -1.5784   -4.6985 C   0  0  0  0  0  0  0  0  0  0  0  0
   -3.7329   -1.0206   -5.8711 N   0  0  0  0  0  0  0  0  0  0  0  0
   -3.8525    0.3435   -6.0057 C   0  0  0  0  0  0  0  0  0  0  0  0
   -3.3391    1.2065   -5.0449 C   0  0  0  0  0  0  0  0  0  0  0  0
   -3.4856    2.5747   -5.2259 C   0  0  0  0  0  0  0  0  0  0  0  0
   -4.1085    3.0670   -6.2918 N   0  0  0  0  0  0  0  0  0  0  0  0
   -4.6067    2.2938   -7.2315 C   0  0  0  0  0  0  0  0  0  0  0  0
   -4.5032    0.9010   -7.1282 C   0  0  0  0  0  0  0  0  0  0  0  0
   -5.0383    0.0535   -8.1269 C   0  0  0  0  0  0  0  0  0  0  0  0
   -4.9153   -1.3021   -7.9858 C   0  0  0  0  0  0  0  0  0  0  0  0
   -4.2351   -1.8476   -6.8090 C   0  0  0  0  0  0  0  0  0  0  0  0
   -4.1225   -3.0534   -6.6778 O   0  0  0  0  0  0  0  0  0  0  0  0
   -5.4671   -2.2120   -9.0166 C   0  0  0  0  0  0  0  0  0  0  0  0
   -6.7772   -2.6804   -8.9090 C   0  0  0  0  0  0  0  0  0  0  0  0
   -7.2870   -3.5246   -9.8759 C   0  0  0  0  0  0  0  0  0  0  0  0
   -6.4986   -3.9144  -10.9436 C   0  0  0  0  0  0  0  0  0  0  0  0
   -5.1974   -3.4579  -11.0534 C   0  0  0  0  0  0  0  0  0  0  0  0
   -4.6771   -2.6091  -10.0962 C   0  0  0  0  0  0  0  0  0  0  0  0
   -3.0437   -2.0378  -10.2355 Cl  0  0  0  0  0  0  0  0  0  0  0  0
   -7.7661   -2.1977   -7.5663 Cl  0  0  0  0  0  0  0  0  0  0  0  0
   -2.9768    3.4454   -4.2728 N   0  0  0  0  0  0  0  0  0  0  0  0
   -2.4761    2.9457   -3.0643 C   0  0  0  0  0  0  0  0  0  0  0  0
   -1.2944    3.4527   -2.5397 C   0  0  0  0  0  0  0  0  0  0  0  0
   -0.8009    2.9604   -1.3478 C   0  0  0  0  0  0  0  0  0  0  0  0
   -1.4863    1.9581   -0.6737 C   0  0  0  0  0  0  0  0  0  0  0  0
   -2.6650    1.4471   -1.2012 C   0  0  0  0  0  0  0  0  0  0  0  0
   -3.1614    1.9435   -2.3902 C   0  0  0  0  0  0  0  0  0  0  0  0
   -0.9861    1.4590    0.5343 N   0  0  0  0  0  0  0  0  0  0  0  0
    0.3858    0.9572    0.3693 C   0  0  0  0  0  0  0  0  0  0  0  0
    0.9142    0.4771    1.7237 C   0  0  0  0  0  0  0  0  0  0  0  0
    0.0324   -0.5196    2.2476 O   0  0  0  0  0  0  0  0  0  0  0  0
   -1.3122   -0.0646    2.4217 C   0  0  0  0  0  0  0  0  0  0  0  0
   -1.8631    0.4100    1.0744 C   0  0  0  0  0  0  0  0  0  0  0  0
   -3.7815   -1.7455   -3.9036 H   0  0  0  0  0  0  0  0  0  0  0  0
   -2.5852   -2.5249   -4.9664 H   0  0  0  0  0  0  0  0  0  0  0  0
   -2.2926   -0.8798   -4.3530 H   0  0  0  0  0  0  0  0  0  0  0  0
   -2.8344    0.8191   -4.1722 H   0  0  0  0  0  0  0  0  0  0  0  0
   -5.1015    2.7346   -8.0843 H   0  0  0  0  0  0  0  0  0  0  0  0
   -5.5376    0.4709   -8.9889 H   0  0  0  0  0  0  0  0  0  0  0  0
   -8.3023   -3.8843   -9.7962 H   0  0  0  0  0  0  0  0  0  0  0  0
   -6.9006   -4.5783  -11.6946 H   0  0  0  0  0  0  0  0  0  0  0  0
   -4.5872   -3.7657  -11.8896 H   0  0  0  0  0  0  0  0  0  0  0  0
   -2.9679    4.4002   -4.4437 H   0  0  0  0  0  0  0  0  0  0  0  0
   -0.7616    4.2324   -3.0637 H   0  0  0  0  0  0  0  0  0  0  0  0
    0.1178    3.3549   -0.9397 H   0  0  0  0  0  0  0  0  0  0  0  0
   -3.1955    0.6644   -0.6794 H   0  0  0  0  0  0  0  0  0  0  0  0
   -4.0806    1.5494   -2.7980 H   0  0  0  0  0  0  0  0  0  0  0  0
    0.3872    0.1269   -0.3370 H   0  0  0  0  0  0  0  0  0  0  0  0
    1.0232    1.7572   -0.0072 H   0  0  0  0  0  0  0  0  0  0  0  0
    0.9633    1.3189    2.4143 H   0  0  0  0  0  0  0  0  0  0  0  0
    1.9097    0.0518    1.5967 H   0  0  0  0  0  0  0  0  0  0  0  0
   -1.3278    0.7614    3.1326 H   0  0  0  0  0  0  0  0  0  0  0  0
   -1.9275   -0.8813    2.7991 H   0  0  0  0  0  0  0  0  0  0  0  0
   -2.8674    0.8106    1.2126 H   0  0  0  0  0  0  0  0  0  0  0  0
   -1.8983   -0.4287    0.3790 H   0  0  0  0  0  0  0  0  0  0  0  0
  1  2  1  0  0  0  0
  1 34  1  0  0  0  0
  1 35  1  0  0  0  0
  1 36  1  0  0  0  0
  2 11  1  0  0  0  0
  2  3  1  0  0  0  0
  3  8  2  0  0  0  0
  3  4  1  0  0  0  0
  4  5  2  0  0  0  0
  4 37  1  0  0  0  0
  5  6  1  0  0  0  0
  5 21  1  0  0  0  0
  6  7  2  0  0  0  0
  7  8  1  0  0  0  0
  7 38  1  0  0  0  0
  8  9  1  0  0  0  0
  9 10  2  0  0  0  0
  9 39  1  0  0  0  0
 10 11  1  0  0  0  0
 10 13  1  0  0  0  0
 11 12  2  0  0  0  0
 13 18  2  0  0  0  0
 13 14  1  0  0  0  0
 14 15  2  0  0  0  0
 14 20  1  0  0  0  0
 15 16  1  0  0  0  0
 15 40  1  0  0  0  0
 16 17  2  0  0  0  0
 16 41  1  0  0  0  0
 17 18  1  0  0  0  0
 17 42  1  0  0  0  0
 18 19  1  0  0  0  0
 21 22  1  0  0  0  0
 21 43  1  0  0  0  0
 22 27  2  0  0  0  0
 22 23  1  0  0  0  0
 23 24  2  0  0  0  0
 23 44  1  0  0  0  0
 24 25  1  0  0  0  0
 24 45  1  0  0  0  0
 25 26  2  0  0  0  0
 25 28  1  0  0  0  0
 26 27  1  0  0  0  0
 26 46  1  0  0  0  0
 27 47  1  0  0  0  0
 28 33  1  0  0  0  0
 28 29  1  0  0  0  0
 29 30  1  0  0  0  0
 29 48  1  0  0  0  0
 29 49  1  0  0  0  0
 30 31  1  0  0  0  0
 30 50  1  0  0  0  0
 30 51  1  0  0  0  0
 31 32  1  0  0  0  0
 32 33  1  0  0  0  0
 32 52  1  0  0  0  0
 32 53  1  0  0  0  0
 33 54  1  0  0  0  0
 33 55  1  0  0  0  0
M  END
$$$$
ZINC03832352
  -OEChem-08230709403D

 49 51  0     0  0  0  0  0  0999 V2000
   -0.0127    1.0858    0.0080 C   0  0  0  0  0  0  0  0  0  0  0  0
   -0.6816    1.5467    1.1837 O   0  0  0  0  0  0  0  0  0  0  0  0
   -0.7875    2.8927    1.3463 C   0  0  0  0  0  0  0  0  0  0  0  0
   -0.2585    3.7499    0.3939 C   0  0  0  0  0  0  0  0  0  0  0  0
   -0.3663    5.1228    0.5594 C   0  0  0  0  0  0  0  0  0  0  0  0
   -1.0033    5.6401    1.6777 C   0  0  0  0  0  0  0  0  0  0  0  0
   -1.5328    4.7853    2.6320 C   0  0  0  0  0  0  0  0  0  0  0  0
   -1.4310    3.4094    2.4644 C   0  0  0  0  0  0  0  0  0  0  0  0
   -1.9559    2.5686    3.3979 O   0  0  0  0  0  0  0  0  0  0  0  0
   -1.1004    2.1786    4.4740 C   0  0  0  0  0  0  0  0  0  0  0  0
   -2.1569    5.2927    3.7285 O   0  0  0  0  0  0  0  0  0  0  0  0
   -2.2305    6.7161    3.8325 C   0  0  0  0  0  0  0  0  0  0  0  0
    0.1533    5.9623   -0.3751 O   0  0  0  0  0  0  0  0  0  0  0  0
    0.0256    7.2945   -0.1737 C   0  0  0  0  0  0  0  0  0  0  0  0
   -1.0929    8.0019   -0.6654 C   0  0  0  0  0  0  0  0  0  0  0  0
   -2.1079    7.3452   -1.3788 C   0  0  0  0  0  0  0  0  0  0  0  0
   -3.1780    8.0530   -1.8433 C   0  0  0  0  0  0  0  0  0  0  0  0
   -3.2751    9.4333   -1.6145 C   0  0  0  0  0  0  0  0  0  0  0  0
   -2.2984   10.0996   -0.9108 C   0  0  0  0  0  0  0  0  0  0  0  0
   -1.1853    9.3948   -0.4263 C   0  0  0  0  0  0  0  0  0  0  0  0
   -0.2168   10.0293    0.2494 N   0  0  0  0  0  0  0  0  0  0  0  0
    0.8322    9.3985    0.7117 C   0  0  0  0  0  0  0  0  0  0  0  0
    1.0015    8.0167    0.5241 C   0  0  0  0  0  0  0  0  0  0  0  0
    2.1602    7.3533    1.0416 C   0  0  0  0  0  0  0  0  0  0  0  0
    3.0794    6.8269    1.4521 N   0  0  0  0  0  0  0  0  0  0  0  0
   -4.3494   10.1185   -2.0856 O   0  0  0  0  0  0  0  0  0  0  0  0
   -4.3910   11.5220   -1.8204 C   0  0  0  0  0  0  0  0  0  0  0  0
   -4.1596    7.4141   -2.5341 O   0  0  0  0  0  0  0  0  0  0  0  0
   -4.0027    6.0079   -2.7335 C   0  0  0  0  0  0  0  0  0  0  0  0
    0.0021   -0.0041    0.0020 H   0  0  0  0  0  0  0  0  0  0  0  0
    1.0099    1.4631    0.0003 H   0  0  0  0  0  0  0  0  0  0  0  0
   -0.5399    1.4469   -0.8751 H   0  0  0  0  0  0  0  0  0  0  0  0
    0.2374    3.3486   -0.4775 H   0  0  0  0  0  0  0  0  0  0  0  0
   -1.0864    6.7093    1.8052 H   0  0  0  0  0  0  0  0  0  0  0  0
   -1.6410    1.5101    5.1440 H   0  0  0  0  0  0  0  0  0  0  0  0
   -0.2261    1.6642    4.0751 H   0  0  0  0  0  0  0  0  0  0  0  0
   -0.7815    3.0641    5.0238 H   0  0  0  0  0  0  0  0  0  0  0  0
   -1.2230    7.1316    3.8503 H   0  0  0  0  0  0  0  0  0  0  0  0
   -2.7731    7.1154    2.9756 H   0  0  0  0  0  0  0  0  0  0  0  0
   -2.7515    6.9868    4.7508 H   0  0  0  0  0  0  0  0  0  0  0  0
   -2.0422    6.2824   -1.5593 H   0  0  0  0  0  0  0  0  0  0  0  0
   -2.3827   11.1629   -0.7409 H   0  0  0  0  0  0  0  0  0  0  0  0
    1.5861    9.9535    1.2502 H   0  0  0  0  0  0  0  0  0  0  0  0
   -4.3868   11.6885   -0.7432 H   0  0  0  0  0  0  0  0  0  0  0  0
   -3.5194   12.0019   -2.2656 H   0  0  0  0  0  0  0  0  0  0  0  0
   -5.2985   11.9462   -2.2500 H   0  0  0  0  0  0  0  0  0  0  0  0
   -4.8529    5.6237   -3.2971 H   0  0  0  0  0  0  0  0  0  0  0  0
   -3.0838    5.8200   -3.2890 H   0  0  0  0  0  0  0  0  0  0  0  0
   -3.9515    5.5072   -1.7666 H   0  0  0  0  0  0  0  0  0  0  0  0
  1  2  1  0  0  0  0
  1 30  1  0  0  0  0
  1 31  1  0  0  0  0
  1 32  1  0  0  0  0
  2  3  1  0  0  0  0
  3  8  2  0  0  0  0
  3  4  1  0  0  0  0
  4  5  2  0  0  0  0
  4 33  1  0  0  0  0
  5  6  1  0  0  0  0
  5 13  1  0  0  0  0
  6  7  2  0  0  0  0
  6 34  1  0  0  0  0
  7  8  1  0  0  0  0
  7 11  1  0  0  0  0
  8  9  1  0  0  0  0
  9 10  1  0  0  0  0
 10 35  1  0  0  0  0
 10 36  1  0  0  0  0
 10 37  1  0  0  0  0
 11 12  1  0  0  0  0
 12 38  1  0  0  0  0
 12 39  1  0  0  0  0
 12 40  1  0  0  0  0
 13 14  1  0  0  0  0
 14 23  2  0  0  0  0
 14 15  1  0  0  0  0
 15 20  2  0  0  0  0
 15 16  1  0  0  0  0
 16 17  2  0  0  0  0
 16 41  1  0  0  0  0
 17 18  1  0  0  0  0
 17 28  1  0  0  0  0
 18 19  2  0  0  0  0
 18 26  1  0  0  0  0
 19 20  1  0  0  0  0
 19 42  1  0  0  0  0
 20 21  1  0  0  0  0
 21 22  2  0  0  0  0
 22 23  1  0  0  0  0
 22 43  1  0  0  0  0
 23 24  1  0  0  0  0
 24 25  3  0  0  0  0
 26 27  1  0  0  0  0
 27 44  1  0  0  0  0
 27 45  1  0  0  0  0
 27 46  1  0  0  0  0
 28 29  1  0  0  0  0
 29 47  1  0  0  0  0
 29 48  1  0  0  0  0
 29 49  1  0  0  0  0
M  END
$$$$
ZINC03832353
  -OEChem-08230709403D

 40 43  0     0  0  0  0  0  0999 V2000
    5.3174    5.6511   -0.0177 C   0  0  0  0  0  0  0  0  0  0  0  0
    5.7876    4.7214    0.8924 C   0  0  0  0  0  0  0  0  0  0  0  0
    5.2819    3.4375    0.8950 C   0  0  0  0  0  0  0  0  0  0  0  0
    4.2951    3.0780   -0.0220 C   0  0  0  0  0  0  0  0  0  0  0  0
    3.8289    4.0178   -0.9403 C   0  0  0  0  0  0  0  0  0  0  0  0
    4.3384    5.3002   -0.9300 C   0  0  0  0  0  0  0  0  0  0  0  0
    3.7481    1.7004   -0.0246 C   0  0  0  0  0  0  0  0  0  0  0  0
    4.4591    0.5458   -0.0376 C   0  0  0  0  0  0  0  0  0  0  0  0
    3.6018   -0.5223   -0.0351 N   0  0  0  0  0  0  0  0  0  0  0  0
    2.3017   -0.0869   -0.0204 C   0  0  0  0  0  0  0  0  0  0  0  0
    2.3299    1.3185   -0.0131 C   0  0  0  0  0  0  0  0  0  0  0  0
    1.1153    2.0167    0.0022 C   0  0  0  0  0  0  0  0  0  0  0  0
   -0.0158    1.3164    0.0093 N   0  0  0  0  0  0  0  0  0  0  0  0
    0.0021   -0.0041    0.0020 C   0  0  0  0  0  0  0  0  0  0  0  0
    1.1189   -0.6994   -0.0124 N   0  0  0  0  0  0  0  0  0  0  0  0
    1.0927    3.4000    0.0103 N   0  0  0  0  0  0  0  0  0  0  0  0
    3.9965   -1.8664   -0.0454 C   0  0  0  0  0  0  0  0  0  0  0  0
    4.6955   -2.3946    1.0322 C   0  0  0  0  0  0  0  0  0  0  0  0
    5.0786   -3.7213    1.0214 C   0  0  0  0  0  0  0  0  0  0  0  0
    4.7764   -4.5209   -0.0659 C   0  0  0  0  0  0  0  0  0  0  0  0
    4.0853   -3.9966   -1.1424 C   0  0  0  0  0  0  0  0  0  0  0  0
    3.6947   -2.6717   -1.1353 C   0  0  0  0  0  0  0  0  0  0  0  0
    2.9423   -2.1008   -2.3096 C   0  0  0  0  0  0  0  0  0  0  0  0
    2.7551   -3.1181   -3.2955 O   0  0  0  0  0  0  0  0  0  0  0  0
    5.7159    6.6549   -0.0158 H   0  0  0  0  0  0  0  0  0  0  0  0
    6.5518    5.0011    1.6025 H   0  0  0  0  0  0  0  0  0  0  0  0
    5.6494    2.7126    1.6063 H   0  0  0  0  0  0  0  0  0  0  0  0
    3.0678    3.7438   -1.6559 H   0  0  0  0  0  0  0  0  0  0  0  0
    3.9754    6.0301   -1.6384 H   0  0  0  0  0  0  0  0  0  0  0  0
    5.5369    0.4788   -0.0486 H   0  0  0  0  0  0  0  0  0  0  0  0
   -0.9385   -0.5349    0.0085 H   0  0  0  0  0  0  0  0  0  0  0  0
    0.2449    3.8712    0.0213 H   0  0  0  0  0  0  0  0  0  0  0  0
    1.9247    3.8987    0.0051 H   0  0  0  0  0  0  0  0  0  0  0  0
    4.9356   -1.7694    1.8795 H   0  0  0  0  0  0  0  0  0  0  0  0
    5.6189   -4.1336    1.8607 H   0  0  0  0  0  0  0  0  0  0  0  0
    5.0807   -5.5571   -0.0738 H   0  0  0  0  0  0  0  0  0  0  0  0
    3.8508   -4.6236   -1.9900 H   0  0  0  0  0  0  0  0  0  0  0  0
    1.9712   -1.7351   -1.9759 H   0  0  0  0  0  0  0  0  0  0  0  0
    3.5120   -1.2775   -2.7407 H   0  0  0  0  0  0  0  0  0  0  0  0
    2.2766   -2.8208   -4.0815 H   0  0  0  0  0  0  0  0  0  0  0  0
  1  6  2  0  0  0  0
  1  2  1  0  0  0  0
  1 25  1  0  0  0  0
  2  3  2  0  0  0  0
  2 26  1  0  0  0  0
  3  4  1  0  0  0  0
  3 27  1  0  0  0  0
  4  5  2  0  0  0  0
  4  7  1  0  0  0  0
  5  6  1  0  0  0  0
  5 28  1  0  0  0  0
  6 29  1  0  0  0  0
  7 11  1  0  0  0  0
  7  8  2  0  0  0  0
  8  9  1  0  0  0  0
  8 30  1  0  0  0  0
  9 10  1  0  0  0  0
  9 17  1  0  0  0  0
 10 15  2  0  0  0  0
 10 11  1  0  0  0  0
 11 12  2  0  0  0  0
 12 13  1  0  0  0  0
 12 16  1  0  0  0  0
 13 14  2  0  0  0  0
 14 15  1  0  0  0  0
 14 31  1  0  0  0  0
 16 32  1  0  0  0  0
 16 33  1  0  0  0  0
 17 22  2  0  0  0  0
 17 18  1  0  0  0  0
 18 19  2  0  0  0  0
 18 34  1  0  0  0  0
 19 20  1  0  0  0  0
 19 35  1  0  0  0  0
 20 21  2  0  0  0  0
 20 36  1  0  0  0  0
 21 22  1  0  0  0  0
 21 37  1  0  0  0  0
 22 23  1  0  0  0  0
 23 24  1  0  0  0  0
 23 38  1  0  0  0  0
 23 39  1  0  0  0  0
 24 40  1  0  0  0  0
M  END
$$$$
ZINC03832354
  -OEChem-08230709403D

 51 53  0     0  0  0  0  0  0999 V2000
    0.1265   -0.0197    0.1510 C   0  0  0  0  0  0  0  0  0  0  0  0
    0.1307    1.5103    0.1624 C   0  0  0  0  0  0  0  0  0  0  0  0
   -0.6909    1.9809    1.2327 O   0  0  0  0  0  0  0  0  0  0  0  0
   -0.7961    3.3301    1.3840 C   0  0  0  0  0  0  0  0  0  0  0  0
    0.0995    4.0100    2.2008 C   0  0  0  0  0  0  0  0  0  0  0  0
   -0.0047    5.3841    2.3497 C   0  0  0  0  0  0  0  0  0  0  0  0
   -1.0105    6.0797    1.6923 C   0  0  0  0  0  0  0  0  0  0  0  0
   -1.9091    5.4004    0.8807 C   0  0  0  0  0  0  0  0  0  0  0  0
   -1.8026    4.0271    0.7262 C   0  0  0  0  0  0  0  0  0  0  0  0
   -2.6826    3.3619   -0.0691 O   0  0  0  0  0  0  0  0  0  0  0  0
   -3.6914    4.1416   -0.7144 C   0  0  0  0  0  0  0  0  0  0  0  0
   -1.1183    7.4666    1.8474 N   0  0  0  0  0  0  0  0  0  0  0  0
    0.0166    8.2312    2.0269 C   0  0  0  0  0  0  0  0  0  0  0  0
   -0.0767    9.6164    2.3019 C   0  0  0  0  0  0  0  0  0  0  0  0
   -1.3108   10.2699    2.4039 C   0  0  0  0  0  0  0  0  0  0  0  0
   -1.3471   11.6088    2.6713 C   0  0  0  0  0  0  0  0  0  0  0  0
   -0.1616   12.3371    2.8450 C   0  0  0  0  0  0  0  0  0  0  0  0
    1.0647   11.7178    2.7493 C   0  0  0  0  0  0  0  0  0  0  0  0
    1.1253   10.3456    2.4763 C   0  0  0  0  0  0  0  0  0  0  0  0
    2.2949    9.6950    2.3739 N   0  0  0  0  0  0  0  0  0  0  0  0
    2.3203    8.4088    2.1172 C   0  0  0  0  0  0  0  0  0  0  0  0
    1.2239    7.6862    1.9518 N   0  0  0  0  0  0  0  0  0  0  0  0
   -0.2233   13.6680    3.1102 O   0  0  0  0  0  0  0  0  0  0  0  0
    1.0187   14.3546    3.2769 C   0  0  0  0  0  0  0  0  0  0  0  0
   -2.5462   12.2424    2.7705 O   0  0  0  0  0  0  0  0  0  0  0  0
   -3.7181   11.4462    2.5840 C   0  0  0  0  0  0  0  0  0  0  0  0
    1.0810    3.3280    2.8496 O   0  0  0  0  0  0  0  0  0  0  0  0
    1.9660    4.0908    3.6724 C   0  0  0  0  0  0  0  0  0  0  0  0
    0.7532   -0.3787   -0.6653 H   0  0  0  0  0  0  0  0  0  0  0  0
    0.5162   -0.3912    1.0987 H   0  0  0  0  0  0  0  0  0  0  0  0
   -0.8931   -0.3791    0.0115 H   0  0  0  0  0  0  0  0  0  0  0  0
    1.1503    1.8697    0.3019 H   0  0  0  0  0  0  0  0  0  0  0  0
   -0.2590    1.8818   -0.7853 H   0  0  0  0  0  0  0  0  0  0  0  0
    0.6939    5.9132    2.9809 H   0  0  0  0  0  0  0  0  0  0  0  0
   -2.6914    5.9420    0.3699 H   0  0  0  0  0  0  0  0  0  0  0  0
   -4.2990    4.6442    0.0382 H   0  0  0  0  0  0  0  0  0  0  0  0
   -3.2202    4.8854   -1.3570 H   0  0  0  0  0  0  0  0  0  0  0  0
   -4.3246    3.4900   -1.3166 H   0  0  0  0  0  0  0  0  0  0  0  0
   -1.9907    7.8903    1.8288 H   0  0  0  0  0  0  0  0  0  0  0  0
   -2.2297    9.7180    2.2713 H   0  0  0  0  0  0  0  0  0  0  0  0
    1.9730   12.2863    2.8838 H   0  0  0  0  0  0  0  0  0  0  0  0
    3.2787    7.9167    2.0416 H   0  0  0  0  0  0  0  0  0  0  0  0
    0.8270   15.4076    3.4833 H   0  0  0  0  0  0  0  0  0  0  0  0
    1.5679   13.9152    4.1096 H   0  0  0  0  0  0  0  0  0  0  0  0
    1.6088   14.2648    2.3648 H   0  0  0  0  0  0  0  0  0  0  0  0
   -3.7021   11.0040    1.5879 H   0  0  0  0  0  0  0  0  0  0  0  0
   -3.7423   10.6544    3.3327 H   0  0  0  0  0  0  0  0  0  0  0  0
   -4.6036   12.0729    2.6891 H   0  0  0  0  0  0  0  0  0  0  0  0
    2.4797    4.8337    3.0622 H   0  0  0  0  0  0  0  0  0  0  0  0
    1.3941    4.5938    4.4522 H   0  0  0  0  0  0  0  0  0  0  0  0
    2.6991    3.4269    4.1304 H   0  0  0  0  0  0  0  0  0  0  0  0
  1  2  1  0  0  0  0
  1 29  1  0  0  0  0
  1 30  1  0  0  0  0
  1 31  1  0  0  0  0
  2  3  1  0  0  0  0
  2 32  1  0  0  0  0
  2 33  1  0  0  0  0
  3  4  1  0  0  0  0
  4  9  2  0  0  0  0
  4  5  1  0  0  0  0
  5  6  2  0  0  0  0
  5 27  1  0  0  0  0
  6  7  1  0  0  0  0
  6 34  1  0  0  0  0
  7  8  2  0  0  0  0
  7 12  1  0  0  0  0
  8  9  1  0  0  0  0
  8 35  1  0  0  0  0
  9 10  1  0  0  0  0
 10 11  1  0  0  0  0
 11 36  1  0  0  0  0
 11 37  1  0  0  0  0
 11 38  1  0  0  0  0
 12 13  1  0  0  0  0
 12 39  1  0  0  0  0
 13 22  2  0  0  0  0
 13 14  1  0  0  0  0
 14 19  2  0  0  0  0
 14 15  1  0  0  0  0
 15 16  2  0  0  0  0
 15 40  1  0  0  0  0
 16 17  1  0  0  0  0
 16 25  1  0  0  0  0
 17 18  2  0  0  0  0
 17 23  1  0  0  0  0
 18 19  1  0  0  0  0
 18 41  1  0  0  0  0
 19 20  1  0  0  0  0
 20 21  2  0  0  0  0
 21 22  1  0  0  0  0
 21 42  1  0  0  0  0
 23 24  1  0  0  0  0
 24 43  1  0  0  0  0
 24 44  1  0  0  0  0
 24 45  1  0  0  0  0
 25 26  1  0  0  0  0
 26 46  1  0  0  0  0
 26 47  1  0  0  0  0
 26 48  1  0  0  0  0
 27 28  1  0  0  0  0
 28 49  1  0  0  0  0
 28 50  1  0  0  0  0
 28 51  1  0  0  0  0
M  END
$$$$
ZINC03832355
  -OEChem-08230709403D

 27 29  0     0  0  0  0  0  0999 V2000
    0.0021   -0.0041    0.0020 C   0  0  0  0  0  0  0  0  0  0  0  0
   -0.0167    1.3786    0.0096 C   0  0  0  0  0  0  0  0  0  0  0  0
    1.1691    2.0868    0.0021 C   0  0  0  0  0  0  0  0  0  0  0  0
    2.3808    1.4090   -0.0137 C   0  0  0  0  0  0  0  0  0  0  0  0
    2.3963    0.0206   -0.0208 C   0  0  0  0  0  0  0  0  0  0  0  0
    1.2072   -0.6820   -0.0127 C   0  0  0  0  0  0  0  0  0  0  0  0
    3.5853    2.1245   -0.0223 N   0  0  0  0  0  0  0  0  0  0  0  0
    4.6497    1.9265    0.8064 C   0  0  0  0  0  0  0  0  0  0  0  0
    5.6002    2.7672    0.5204 N   0  0  0  0  0  0  0  0  0  0  0  0
    5.2136    3.5629   -0.5106 C   0  0  0  0  0  0  0  0  0  0  0  0
    3.9191    3.1603   -0.8777 C   0  0  0  0  0  0  0  0  0  0  0  0
    3.2578    3.8056   -1.9132 C   0  0  0  0  0  0  0  0  0  0  0  0
    3.8757    4.8375   -2.5886 C   0  0  0  0  0  0  0  0  0  0  0  0
    5.1586    5.2411   -2.2367 C   0  0  0  0  0  0  0  0  0  0  0  0
    5.8320    4.6113   -1.2030 C   0  0  0  0  0  0  0  0  0  0  0  0
    7.0871    5.0094   -0.8620 O   0  0  0  0  0  0  0  0  0  0  0  0
    5.7564    6.2603   -2.9119 O   0  0  0  0  0  0  0  0  0  0  0  0
   -0.9264   -0.5556    0.0080 H   0  0  0  0  0  0  0  0  0  0  0  0
   -0.9595    1.9053    0.0170 H   0  0  0  0  0  0  0  0  0  0  0  0
    1.1538    3.1667    0.0081 H   0  0  0  0  0  0  0  0  0  0  0  0
    3.3373   -0.5095   -0.0323 H   0  0  0  0  0  0  0  0  0  0  0  0
    1.2187   -1.7619   -0.0183 H   0  0  0  0  0  0  0  0  0  0  0  0
    4.6969    1.1805    1.5859 H   0  0  0  0  0  0  0  0  0  0  0  0
    2.2610    3.4977   -2.1924 H   0  0  0  0  0  0  0  0  0  0  0  0
    3.3595    5.3349   -3.3963 H   0  0  0  0  0  0  0  0  0  0  0  0
    7.7897    4.5451   -1.3373 H   0  0  0  0  0  0  0  0  0  0  0  0
    6.2685    5.9755   -3.6811 H   0  0  0  0  0  0  0  0  0  0  0  0
  1  6  2  0  0  0  0
  1  2  1  0  0  0  0
  1 18  1  0  0  0  0
  2  3  2  0  0  0  0
  2 19  1  0  0  0  0
  3  4  1  0  0  0  0
  3 20  1  0  0  0  0
  4  5  2  0  0  0  0
  4  7  1  0  0  0  0
  5  6  1  0  0  0  0
  5 21  1  0  0  0  0
  6 22  1  0  0  0  0
  7 11  1  0  0  0  0
  7  8  1  0  0  0  0
  8  9  2  0  0  0  0
  8 23  1  0  0  0  0
  9 10  1  0  0  0  0
 10 15  2  0  0  0  0
 10 11  1  0  0  0  0
 11 12  2  0  0  0  0
 12 13  1  0  0  0  0
 12 24  1  0  0  0  0
 13 14  2  0  0  0  0
 13 25  1  0  0  0  0
 14 15  1  0  0  0  0
 14 17  1  0  0  0  0
 15 16  1  0  0  0  0
 16 26  1  0  0  0  0
 17 27  1  0  0  0  0
M  END
$$$$
ZINC03832356
  -OEChem-08230709403D

 53 55  0     0  0  0  0  0  0999 V2000
    2.7440    2.6175   -2.4782 C   0  0  0  0  0  0  0  0  0  0  0  0
    3.7668    2.5073   -1.3769 C   0  0  0  0  0  0  0  0  0  0  0  0
    3.4654    2.9658   -0.1011 C   0  0  0  0  0  0  0  0  0  0  0  0
    4.4089    2.8696    0.9128 C   0  0  0  0  0  0  0  0  0  0  0  0
    5.6489    2.3060    0.6548 C   0  0  0  0  0  0  0  0  0  0  0  0
    5.9513    1.8474   -0.6217 C   0  0  0  0  0  0  0  0  0  0  0  0
    5.0080    1.9490   -1.6376 C   0  0  0  0  0  0  0  0  0  0  0  0
    5.3029    1.5000   -2.8869 O   0  0  0  0  0  0  0  0  0  0  0  0
    5.9809    2.4068   -3.7588 C   0  0  0  0  0  0  0  0  0  0  0  0
    7.1709    1.2985   -0.8770 O   0  0  0  0  0  0  0  0  0  0  0  0
    7.3153   -0.1025   -0.6351 C   0  0  0  0  0  0  0  0  0  0  0  0
    6.5712    2.2071    1.6493 O   0  0  0  0  0  0  0  0  0  0  0  0
    6.1536    2.5884    2.9616 C   0  0  0  0  0  0  0  0  0  0  0  0
    2.2123    3.5303    0.1612 N   0  0  0  0  0  0  0  0  0  0  0  0
    1.0845    2.7345    0.1675 C   0  0  0  0  0  0  0  0  0  0  0  0
   -0.2020    3.2892   -0.0255 C   0  0  0  0  0  0  0  0  0  0  0  0
   -0.3721    4.6667   -0.2296 C   0  0  0  0  0  0  0  0  0  0  0  0
   -1.6249    5.1762   -0.4138 C   0  0  0  0  0  0  0  0  0  0  0  0
   -2.7466    4.3350   -0.4001 C   0  0  0  0  0  0  0  0  0  0  0  0
   -2.6069    2.9805   -0.2015 C   0  0  0  0  0  0  0  0  0  0  0  0
   -1.3289    2.4327   -0.0102 C   0  0  0  0  0  0  0  0  0  0  0  0
   -1.1728    1.1142    0.1795 N   0  0  0  0  0  0  0  0  0  0  0  0
    0.0048    0.5749    0.3660 C   0  0  0  0  0  0  0  0  0  0  0  0
    1.1767    1.3484    0.3662 C   0  0  0  0  0  0  0  0  0  0  0  0
    2.4522    0.7295    0.5676 C   0  0  0  0  0  0  0  0  0  0  0  0
    3.4641    0.2385    0.7273 N   0  0  0  0  0  0  0  0  0  0  0  0
   -3.9847    4.8630   -0.5846 O   0  0  0  0  0  0  0  0  0  0  0  0
   -5.0876    3.9547   -0.5596 C   0  0  0  0  0  0  0  0  0  0  0  0
   -1.7868    6.5118   -0.6114 O   0  0  0  0  0  0  0  0  0  0  0  0
   -0.6049    7.3151   -0.6143 C   0  0  0  0  0  0  0  0  0  0  0  0
    2.8633    3.5720   -2.9907 H   0  0  0  0  0  0  0  0  0  0  0  0
    2.8860    1.8033   -3.1888 H   0  0  0  0  0  0  0  0  0  0  0  0
    1.7428    2.5569   -2.0516 H   0  0  0  0  0  0  0  0  0  0  0  0
    4.1755    3.2304    1.9036 H   0  0  0  0  0  0  0  0  0  0  0  0
    5.4105    3.3325   -3.8352 H   0  0  0  0  0  0  0  0  0  0  0  0
    6.9719    2.6225   -3.3594 H   0  0  0  0  0  0  0  0  0  0  0  0
    6.0775    1.9570   -4.7470 H   0  0  0  0  0  0  0  0  0  0  0  0
    7.0333   -0.3244    0.3941 H   0  0  0  0  0  0  0  0  0  0  0  0
    6.6700   -0.6572   -1.3163 H   0  0  0  0  0  0  0  0  0  0  0  0
    8.3527   -0.3944   -0.7986 H   0  0  0  0  0  0  0  0  0  0  0  0
    5.8537    3.6363    2.9574 H   0  0  0  0  0  0  0  0  0  0  0  0
    5.3098    1.9703    3.2684 H   0  0  0  0  0  0  0  0  0  0  0  0
    6.9787    2.4493    3.6602 H   0  0  0  0  0  0  0  0  0  0  0  0
    2.1361    4.4809    0.3385 H   0  0  0  0  0  0  0  0  0  0  0  0
    0.4861    5.3223   -0.2413 H   0  0  0  0  0  0  0  0  0  0  0  0
   -3.4775    2.3414   -0.1925 H   0  0  0  0  0  0  0  0  0  0  0  0
    0.0776   -0.4917    0.5190 H   0  0  0  0  0  0  0  0  0  0  0  0
   -5.1239    3.4538    0.4078 H   0  0  0  0  0  0  0  0  0  0  0  0
   -6.0150    4.5048   -0.7190 H   0  0  0  0  0  0  0  0  0  0  0  0
   -4.9651    3.2126   -1.3485 H   0  0  0  0  0  0  0  0  0  0  0  0
   -0.8747    8.3578   -0.7816 H   0  0  0  0  0  0  0  0  0  0  0  0
   -0.0988    7.2203    0.3464 H   0  0  0  0  0  0  0  0  0  0  0  0
    0.0603    6.9798   -1.4101 H   0  0  0  0  0  0  0  0  0  0  0  0
  1  2  1  0  0  0  0
  1 31  1  0  0  0  0
  1 32  1  0  0  0  0
  1 33  1  0  0  0  0
  2  7  2  0  0  0  0
  2  3  1  0  0  0  0
  3  4  2  0  0  0  0
  3 14  1  0  0  0  0
  4  5  1  0  0  0  0
  4 34  1  0  0  0  0
  5  6  2  0  0  0  0
  5 12  1  0  0  0  0
  6  7  1  0  0  0  0
  6 10  1  0  0  0  0
  7  8  1  0  0  0  0
  8  9  1  0  0  0  0
  9 35  1  0  0  0  0
  9 36  1  0  0  0  0
  9 37  1  0  0  0  0
 10 11  1  0  0  0  0
 11 38  1  0  0  0  0
 11 39  1  0  0  0  0
 11 40  1  0  0  0  0
 12 13  1  0  0  0  0
 13 41  1  0  0  0  0
 13 42  1  0  0  0  0
 13 43  1  0  0  0  0
 14 15  1  0  0  0  0
 14 44  1  0  0  0  0
 15 24  2  0  0  0  0
 15 16  1  0  0  0  0
 16 21  2  0  0  0  0
 16 17  1  0  0  0  0
 17 18  2  0  0  0  0
 17 45  1  0  0  0  0
 18 19  1  0  0  0  0
 18 29  1  0  0  0  0
 19 20  2  0  0  0  0
 19 27  1  0  0  0  0
 20 21  1  0  0  0  0
 20 46  1  0  0  0  0
 21 22  1  0  0  0  0
 22 23  2  0  0  0  0
 23 24  1  0  0  0  0
 23 47  1  0  0  0  0
 24 25  1  0  0  0  0
 25 26  3  0  0  0  0
 27 28  1  0  0  0  0
 28 48  1  0  0  0  0
 28 49  1  0  0  0  0
 28 50  1  0  0  0  0
 29 30  1  0  0  0  0
 30 51  1  0  0  0  0
 30 52  1  0  0  0  0
 30 53  1  0  0  0  0
M  END
$$$$
ZINC03832357
  -OEChem-08230709403D

 57 59  0     0  0  0  0  0  0999 V2000
    2.5140  -10.8657    1.5093 C   0  0  0  0  0  0  0  0  0  0  0  0
    2.6400   -9.3717    1.8139 C   0  0  0  0  0  0  0  0  0  0  0  0
    2.7528   -8.5915    0.5026 C   0  0  0  0  0  0  0  0  0  0  0  0
    2.8788   -7.0975    0.8072 C   0  0  0  0  0  0  0  0  0  0  0  0
    2.9842   -6.3689   -0.4176 O   0  0  0  0  0  0  0  0  0  0  0  0
    3.1041   -5.0157   -0.3235 C   0  0  0  0  0  0  0  0  0  0  0  0
    4.3632   -4.4336   -0.2372 C   0  0  0  0  0  0  0  0  0  0  0  0
    4.4844   -3.0562   -0.1420 C   0  0  0  0  0  0  0  0  0  0  0  0
    3.3485   -2.2579   -0.1328 C   0  0  0  0  0  0  0  0  0  0  0  0
    2.0901   -2.8391   -0.2138 C   0  0  0  0  0  0  0  0  0  0  0  0
    1.9675   -4.2160   -0.3144 C   0  0  0  0  0  0  0  0  0  0  0  0
    0.7350   -4.7847   -0.3988 O   0  0  0  0  0  0  0  0  0  0  0  0
   -0.3890   -3.9024   -0.3837 C   0  0  0  0  0  0  0  0  0  0  0  0
    3.4717   -0.8671   -0.0362 N   0  0  0  0  0  0  0  0  0  0  0  0
    4.5260   -0.2233   -0.6518 C   0  0  0  0  0  0  0  0  0  0  0  0
    4.7377    1.1639   -0.4674 C   0  0  0  0  0  0  0  0  0  0  0  0
    3.8969    1.9406    0.3393 C   0  0  0  0  0  0  0  0  0  0  0  0
    4.1437    3.2759    0.4847 C   0  0  0  0  0  0  0  0  0  0  0  0
    5.2303    3.8786   -0.1650 C   0  0  0  0  0  0  0  0  0  0  0  0
    6.0718    3.1368   -0.9637 C   0  0  0  0  0  0  0  0  0  0  0  0
    5.8377    1.7657   -1.1267 C   0  0  0  0  0  0  0  0  0  0  0  0
    6.6276    0.9987   -1.8944 N   0  0  0  0  0  0  0  0  0  0  0  0
    6.3825   -0.2830   -2.0290 C   0  0  0  0  0  0  0  0  0  0  0  0
    5.3678   -0.8882   -1.4325 N   0  0  0  0  0  0  0  0  0  0  0  0
    5.4551    5.2088   -0.0051 O   0  0  0  0  0  0  0  0  0  0  0  0
    6.5778    5.7643   -0.6929 C   0  0  0  0  0  0  0  0  0  0  0  0
    3.3269    4.0292    1.2687 O   0  0  0  0  0  0  0  0  0  0  0  0
    2.2375    3.3575    1.9043 C   0  0  0  0  0  0  0  0  0  0  0  0
    5.4759   -5.2154   -0.2457 O   0  0  0  0  0  0  0  0  0  0  0  0
    6.7371   -4.5498   -0.1533 C   0  0  0  0  0  0  0  0  0  0  0  0
    1.6234  -11.0396    0.9053 H   0  0  0  0  0  0  0  0  0  0  0  0
    3.3952  -11.2005    0.9620 H   0  0  0  0  0  0  0  0  0  0  0  0
    2.4336  -11.4215    2.4435 H   0  0  0  0  0  0  0  0  0  0  0  0
    3.5305   -9.1978    2.4179 H   0  0  0  0  0  0  0  0  0  0  0  0
    1.7588   -9.0369    2.3612 H   0  0  0  0  0  0  0  0  0  0  0  0
    1.8623   -8.7654   -0.1014 H   0  0  0  0  0  0  0  0  0  0  0  0
    3.6340   -8.9263   -0.0447 H   0  0  0  0  0  0  0  0  0  0  0  0
    3.7693   -6.9236    1.4112 H   0  0  0  0  0  0  0  0  0  0  0  0
    1.9976   -6.7627    1.3544 H   0  0  0  0  0  0  0  0  0  0  0  0
    5.4628   -2.6037   -0.0752 H   0  0  0  0  0  0  0  0  0  0  0  0
    1.2068   -2.2177   -0.2025 H   0  0  0  0  0  0  0  0  0  0  0  0
   -0.3919   -3.3336    0.5462 H   0  0  0  0  0  0  0  0  0  0  0  0
   -0.3242   -3.2169   -1.2287 H   0  0  0  0  0  0  0  0  0  0  0  0
   -1.3081   -4.4836   -0.4569 H   0  0  0  0  0  0  0  0  0  0  0  0
    2.8162   -0.3556    0.4634 H   0  0  0  0  0  0  0  0  0  0  0  0
    3.0572    1.4859    0.8437 H   0  0  0  0  0  0  0  0  0  0  0  0
    6.9062    3.6090   -1.4608 H   0  0  0  0  0  0  0  0  0  0  0  0
    7.0382   -0.8707   -2.6543 H   0  0  0  0  0  0  0  0  0  0  0  0
    6.4571    5.6145   -1.7658 H   0  0  0  0  0  0  0  0  0  0  0  0
    6.6427    6.8313   -0.4801 H   0  0  0  0  0  0  0  0  0  0  0  0
    7.4899    5.2708   -0.3575 H   0  0  0  0  0  0  0  0  0  0  0  0
    2.6240    2.5721    2.5537 H   0  0  0  0  0  0  0  0  0  0  0  0
    1.6669    4.0718    2.4979 H   0  0  0  0  0  0  0  0  0  0  0  0
    1.5905    2.9164    1.1460 H   0  0  0  0  0  0  0  0  0  0  0  0
    6.8511   -3.8688   -0.9967 H   0  0  0  0  0  0  0  0  0  0  0  0
    6.7827   -3.9855    0.7781 H   0  0  0  0  0  0  0  0  0  0  0  0
    7.5393   -5.2875   -0.1708 H   0  0  0  0  0  0  0  0  0  0  0  0
  1  2  1  0  0  0  0
  1 31  1  0  0  0  0
  1 32  1  0  0  0  0
  1 33  1  0  0  0  0
  2  3  1  0  0  0  0
  2 34  1  0  0  0  0
  2 35  1  0  0  0  0
  3  4  1  0  0  0  0
  3 36  1  0  0  0  0
  3 37  1  0  0  0  0
  4  5  1  0  0  0  0
  4 38  1  0  0  0  0
  4 39  1  0  0  0  0
  5  6  1  0  0  0  0
  6 11  2  0  0  0  0
  6  7  1  0  0  0  0
  7  8  2  0  0  0  0
  7 29  1  0  0  0  0
  8  9  1  0  0  0  0
  8 40  1  0  0  0  0
  9 10  2  0  0  0  0
  9 14  1  0  0  0  0
 10 11  1  0  0  0  0
 10 41  1  0  0  0  0
 11 12  1  0  0  0  0
 12 13  1  0  0  0  0
 13 42  1  0  0  0  0
 13 43  1  0  0  0  0
 13 44  1  0  0  0  0
 14 15  1  0  0  0  0
 14 45  1  0  0  0  0
 15 24  2  0  0  0  0
 15 16  1  0  0  0  0
 16 21  2  0  0  0  0
 16 17  1  0  0  0  0
 17 18  2  0  0  0  0
 17 46  1  0  0  0  0
 18 19  1  0  0  0  0
 18 27  1  0  0  0  0
 19 20  2  0  0  0  0
 19 25  1  0  0  0  0
 20 21  1  0  0  0  0
 20 47  1  0  0  0  0
 21 22  1  0  0  0  0
 22 23  2  0  0  0  0
 23 24  1  0  0  0  0
 23 48  1  0  0  0  0
 25 26  1  0  0  0  0
 26 49  1  0  0  0  0
 26 50  1  0  0  0  0
 26 51  1  0  0  0  0
 27 28  1  0  0  0  0
 28 52  1  0  0  0  0
 28 53  1  0  0  0  0
 28 54  1  0  0  0  0
 29 30  1  0  0  0  0
 30 55  1  0  0  0  0
 30 56  1  0  0  0  0
 30 57  1  0  0  0  0
M  END
$$$$
ZINC03832358
  -OEChem-08230709403D

 43 47  0     0  0  0  0  0  0999 V2000
   -1.1876   -1.5494   -8.3360 C   0  0  0  0  0  0  0  0  0  0  0  0
   -2.3967   -1.7232   -7.6645 C   0  0  0  0  0  0  0  0  0  0  0  0
   -2.4235   -2.0411   -6.3414 C   0  0  0  0  0  0  0  0  0  0  0  0
   -1.2165   -2.1973   -5.6390 C   0  0  0  0  0  0  0  0  0  0  0  0
    0.0136   -2.0207   -6.3215 C   0  0  0  0  0  0  0  0  0  0  0  0
    0.0007   -1.6926   -7.6884 C   0  0  0  0  0  0  0  0  0  0  0  0
    1.2229   -2.1755   -5.6229 C   0  0  0  0  0  0  0  0  0  0  0  0
    1.2082   -2.4872   -4.2984 C   0  0  0  0  0  0  0  0  0  0  0  0
    0.0027   -2.6695   -3.6156 C   0  0  0  0  0  0  0  0  0  0  0  0
   -1.2064   -2.5254   -4.2702 C   0  0  0  0  0  0  0  0  0  0  0  0
   -2.3751   -2.6984   -3.5979 O   0  0  0  0  0  0  0  0  0  0  0  0
    0.0195   -2.9962   -2.2523 N   0  0  0  0  0  0  0  0  0  0  0  0
    0.0178   -2.0755   -1.2154 C   0  0  0  0  0  0  0  0  0  0  0  0
   -0.0058   -0.6842   -1.2009 C   0  0  0  0  0  0  0  0  0  0  0  0
    0.0021   -0.0041    0.0020 C   0  0  0  0  0  0  0  0  0  0  0  0
    0.0230   -0.7036    1.2089 C   0  0  0  0  0  0  0  0  0  0  0  0
    0.0409   -2.0843    1.2084 C   0  0  0  0  0  0  0  0  0  0  0  0
    0.0384   -2.7771   -0.0015 C   0  0  0  0  0  0  0  0  0  0  0  0
    0.0532   -4.2117   -0.3450 C   0  0  0  0  0  0  0  0  0  0  0  0
    0.0407   -4.2871   -1.7454 C   0  0  0  0  0  0  0  0  0  0  0  0
    0.0505   -5.5367   -2.3623 C   0  0  0  0  0  0  0  0  0  0  0  0
    0.0724   -6.6892   -1.5907 C   0  0  0  0  0  0  0  0  0  0  0  0
    0.0848   -6.6069   -0.2035 C   0  0  0  0  0  0  0  0  0  0  0  0
    0.0752   -5.3771    0.4188 C   0  0  0  0  0  0  0  0  0  0  0  0
    0.0824   -7.9075   -2.1956 O   0  0  0  0  0  0  0  0  0  0  0  0
    0.0390   -5.6261   -3.7201 O   0  0  0  0  0  0  0  0  0  0  0  0
    0.0254   -0.0245    2.3879 O   0  0  0  0  0  0  0  0  0  0  0  0
   -0.0164    1.3557    0.0095 O   0  0  0  0  0  0  0  0  0  0  0  0
   -1.1940   -1.2977   -9.3862 H   0  0  0  0  0  0  0  0  0  0  0  0
   -3.3258   -1.6037   -8.2019 H   0  0  0  0  0  0  0  0  0  0  0  0
   -3.3677   -2.1731   -5.8339 H   0  0  0  0  0  0  0  0  0  0  0  0
    0.9295   -1.5552   -8.2222 H   0  0  0  0  0  0  0  0  0  0  0  0
    2.1638   -2.0422   -6.1359 H   0  0  0  0  0  0  0  0  0  0  0  0
    2.1422   -2.6000   -3.7681 H   0  0  0  0  0  0  0  0  0  0  0  0
   -2.7222   -1.8894   -3.1977 H   0  0  0  0  0  0  0  0  0  0  0  0
   -0.0266   -0.1353   -2.1308 H   0  0  0  0  0  0  0  0  0  0  0  0
    0.0564   -2.6260    2.1426 H   0  0  0  0  0  0  0  0  0  0  0  0
    0.1022   -7.5097    0.3891 H   0  0  0  0  0  0  0  0  0  0  0  0
    0.0845   -5.3167    1.4971 H   0  0  0  0  0  0  0  0  0  0  0  0
    0.9686   -8.2484   -2.3787 H   0  0  0  0  0  0  0  0  0  0  0  0
    0.9190   -5.6410   -4.1207 H   0  0  0  0  0  0  0  0  0  0  0  0
   -0.8572    0.1601    2.7373 H   0  0  0  0  0  0  0  0  0  0  0  0
    0.8616    1.7610    0.0033 H   0  0  0  0  0  0  0  0  0  0  0  0
  1  6  2  0  0  0  0
  1  2  1  0  0  0  0
  1 29  1  0  0  0  0
  2  3  2  0  0  0  0
  2 30  1  0  0  0  0
  3  4  1  0  0  0  0
  3 31  1  0  0  0  0
  4 10  2  0  0  0  0
  4  5  1  0  0  0  0
  5  6  1  0  0  0  0
  5  7  2  0  0  0  0
  6 32  1  0  0  0  0
  7  8  1  0  0  0  0
  7 33  1  0  0  0  0
  8  9  2  0  0  0  0
  8 34  1  0  0  0  0
  9 10  1  0  0  0  0
  9 12  1  0  0  0  0
 10 11  1  0  0  0  0
 11 35  1  0  0  0  0
 12 20  1  0  0  0  0
 12 13  1  0  0  0  0
 13 18  2  0  0  0  0
 13 14  1  0  0  0  0
 14 15  2  0  0  0  0
 14 36  1  0  0  0  0
 15 16  1  0  0  0  0
 15 28  1  0  0  0  0
 16 17  2  0  0  0  0
 16 27  1  0  0  0  0
 17 18  1  0  0  0  0
 17 37  1  0  0  0  0
 18 19  1  0  0  0  0
 19 24  2  0  0  0  0
 19 20  1  0  0  0  0
 20 21  2  0  0  0  0
 21 22  1  0  0  0  0
 21 26  1  0  0  0  0
 22 23  2  0  0  0  0
 22 25  1  0  0  0  0
 23 24  1  0  0  0  0
 23 38  1  0  0  0  0
 24 39  1  0  0  0  0
 25 40  1  0  0  0  0
 26 41  1  0  0  0  0
 27 42  1  0  0  0  0
 28 43  1  0  0  0  0
M  END
$$$$
ZINC03832359
  -OEChem-08230709403D

 41 44  0     0  0  0  0  0  0999 V2000
   -0.0103    0.0402    0.1130 C   0  0  0  0  0  0  0  0  0  0  0  0
   -0.0069    1.4929    0.3023 N   0  0  0  0  0  0  0  0  0  0  0  0
    1.1863    2.1779    0.3044 C   0  0  0  0  0  0  0  0  0  0  0  0
    2.3950    1.5142    0.1287 C   0  0  0  0  0  0  0  0  0  0  0  0
    3.5712    2.2501    0.1382 C   0  0  0  0  0  0  0  0  0  0  0  0
    3.5597    3.5676    0.3106 N   0  0  0  0  0  0  0  0  0  0  0  0
    2.4439    4.2424    0.4809 C   0  0  0  0  0  0  0  0  0  0  0  0
    1.2109    3.5781    0.4854 C   0  0  0  0  0  0  0  0  0  0  0  0
    0.0004    4.2881    0.6667 C   0  0  0  0  0  0  0  0  0  0  0  0
   -1.1821    3.5997    0.6635 C   0  0  0  0  0  0  0  0  0  0  0  0
   -1.1727    2.1481    0.4676 C   0  0  0  0  0  0  0  0  0  0  0  0
   -2.2225    1.5303    0.4584 O   0  0  0  0  0  0  0  0  0  0  0  0
   -2.4639    4.3186    0.8507 C   0  0  0  0  0  0  0  0  0  0  0  0
   -2.9859    4.4981    2.1323 C   0  0  0  0  0  0  0  0  0  0  0  0
   -4.1790    5.1734    2.3003 C   0  0  0  0  0  0  0  0  0  0  0  0
   -4.8612    5.6624    1.2008 C   0  0  0  0  0  0  0  0  0  0  0  0
   -4.3521    5.4828   -0.0728 C   0  0  0  0  0  0  0  0  0  0  0  0
   -3.1574    4.8140   -0.2542 C   0  0  0  0  0  0  0  0  0  0  0  0
   -2.5202    4.5897   -1.8534 Cl  0  0  0  0  0  0  0  0  0  0  0  0
   -2.1346    3.8793    3.5129 Cl  0  0  0  0  0  0  0  0  0  0  0  0
    4.7841    1.5971   -0.0364 N   0  0  0  0  0  0  0  0  0  0  0  0
    5.9615    2.3331   -0.1493 C   0  0  0  0  0  0  0  0  0  0  0  0
    5.9643    3.5903   -0.7530 C   0  0  0  0  0  0  0  0  0  0  0  0
    7.1501    4.2890   -0.8403 C   0  0  0  0  0  0  0  0  0  0  0  0
    8.2728    3.7777   -0.3711 N   0  0  0  0  0  0  0  0  0  0  0  0
    8.3123    2.5895    0.2022 C   0  0  0  0  0  0  0  0  0  0  0  0
    7.1691    1.8294    0.3333 C   0  0  0  0  0  0  0  0  0  0  0  0
    0.0632   -0.4528    1.0823 H   0  0  0  0  0  0  0  0  0  0  0  0
   -0.9361   -0.2600   -0.3780 H   0  0  0  0  0  0  0  0  0  0  0  0
    0.8392   -0.2475   -0.5064 H   0  0  0  0  0  0  0  0  0  0  0  0
    2.4181    0.4437   -0.0125 H   0  0  0  0  0  0  0  0  0  0  0  0
    2.4784    5.3131    0.6174 H   0  0  0  0  0  0  0  0  0  0  0  0
    0.0098    5.3591    0.8062 H   0  0  0  0  0  0  0  0  0  0  0  0
   -4.5820    5.3166    3.2920 H   0  0  0  0  0  0  0  0  0  0  0  0
   -5.7956    6.1864    1.3373 H   0  0  0  0  0  0  0  0  0  0  0  0
   -4.8898    5.8667   -0.9271 H   0  0  0  0  0  0  0  0  0  0  0  0
    4.8116    0.6285   -0.0798 H   0  0  0  0  0  0  0  0  0  0  0  0
    5.0499    4.0125   -1.1430 H   0  0  0  0  0  0  0  0  0  0  0  0
    7.1610    5.2650   -1.3024 H   0  0  0  0  0  0  0  0  0  0  0  0
    9.2520    2.2074    0.5730 H   0  0  0  0  0  0  0  0  0  0  0  0
    7.2086    0.8575    0.8028 H   0  0  0  0  0  0  0  0  0  0  0  0
  1  2  1  0  0  0  0
  1 28  1  0  0  0  0
  1 29  1  0  0  0  0
  1 30  1  0  0  0  0
  2 11  1  0  0  0  0
  2  3  1  0  0  0  0
  3  8  2  0  0  0  0
  3  4  1  0  0  0  0
  4  5  2  0  0  0  0
  4 31  1  0  0  0  0
  5  6  1  0  0  0  0
  5 21  1  0  0  0  0
  6  7  2  0  0  0  0
  7  8  1  0  0  0  0
  7 32  1  0  0  0  0
  8  9  1  0  0  0  0
  9 10  2  0  0  0  0
  9 33  1  0  0  0  0
 10 11  1  0  0  0  0
 10 13  1  0  0  0  0
 11 12  2  0  0  0  0
 13 18  2  0  0  0  0
 13 14  1  0  0  0  0
 14 15  2  0  0  0  0
 14 20  1  0  0  0  0
 15 16  1  0  0  0  0
 15 34  1  0  0  0  0
 16 17  2  0  0  0  0
 16 35  1  0  0  0  0
 17 18  1  0  0  0  0
 17 36  1  0  0  0  0
 18 19  1  0  0  0  0
 21 22  1  0  0  0  0
 21 37  1  0  0  0  0
 22 27  2  0  0  0  0
 22 23  1  0  0  0  0
 23 24  2  0  0  0  0
 23 38  1  0  0  0  0
 24 25  1  0  0  0  0
 24 39  1  0  0  0  0
 25 26  2  0  0  0  0
 26 27  1  0  0  0  0
 26 40  1  0  0  0  0
 27 41  1  0  0  0  0
M  END
$$$$
ZINC03832360
  -OEChem-08230709403D

 42 45  0     0  0  0  0  0  0999 V2000
    0.1058   -2.8122   -0.0911 C   0  0  0  0  0  0  0  0  0  0  0  0
    1.0971   -2.0938    0.7136 N   0  0  0  0  0  0  0  0  0  0  0  0
    0.9658   -0.7380    0.9075 C   0  0  0  0  0  0  0  0  0  0  0  0
   -0.0952   -0.0335    0.3509 C   0  0  0  0  0  0  0  0  0  0  0  0
   -0.1834    1.3332    0.5750 C   0  0  0  0  0  0  0  0  0  0  0  0
    0.7230    1.9723    1.3072 N   0  0  0  0  0  0  0  0  0  0  0  0
    1.7449    1.3523    1.8554 C   0  0  0  0  0  0  0  0  0  0  0  0
    1.9105   -0.0273    1.6798 C   0  0  0  0  0  0  0  0  0  0  0  0
    3.0039   -0.7110    2.2623 C   0  0  0  0  0  0  0  0  0  0  0  0
    3.1278   -2.0593    2.0645 C   0  0  0  0  0  0  0  0  0  0  0  0
    2.1305   -2.7661    1.2575 C   0  0  0  0  0  0  0  0  0  0  0  0
    2.2354   -3.9664    1.0779 O   0  0  0  0  0  0  0  0  0  0  0  0
    4.2636   -2.7993    2.6622 C   0  0  0  0  0  0  0  0  0  0  0  0
    5.4549   -2.9480    1.9511 C   0  0  0  0  0  0  0  0  0  0  0  0
    6.5118   -3.6345    2.5162 C   0  0  0  0  0  0  0  0  0  0  0  0
    6.3874   -4.1834    3.7798 C   0  0  0  0  0  0  0  0  0  0  0  0
    5.2071   -4.0445    4.4878 C   0  0  0  0  0  0  0  0  0  0  0  0
    4.1447   -3.3554    3.9365 C   0  0  0  0  0  0  0  0  0  0  0  0
    2.6643   -3.1822    4.8266 Cl  0  0  0  0  0  0  0  0  0  0  0  0
    5.6106   -2.2661    0.3622 Cl  0  0  0  0  0  0  0  0  0  0  0  0
   -1.2356    2.0475    0.0190 N   0  0  0  0  0  0  0  0  0  0  0  0
   -1.2719    3.4399    0.1322 C   0  0  0  0  0  0  0  0  0  0  0  0
   -0.0895    4.1691    0.1368 C   0  0  0  0  0  0  0  0  0  0  0  0
   -0.1293    5.5454    0.2435 C   0  0  0  0  0  0  0  0  0  0  0  0
   -1.3439    6.1969    0.3569 C   0  0  0  0  0  0  0  0  0  0  0  0
   -2.5225    5.4736    0.3585 C   0  0  0  0  0  0  0  0  0  0  0  0
   -2.4903    4.0975    0.2463 C   0  0  0  0  0  0  0  0  0  0  0  0
    0.4188   -2.8154   -1.1352 H   0  0  0  0  0  0  0  0  0  0  0  0
    0.0224   -3.8385    0.2663 H   0  0  0  0  0  0  0  0  0  0  0  0
   -0.8613   -2.3171   -0.0033 H   0  0  0  0  0  0  0  0  0  0  0  0
   -0.8387   -0.5411   -0.2458 H   0  0  0  0  0  0  0  0  0  0  0  0
    2.4594    1.9091    2.4434 H   0  0  0  0  0  0  0  0  0  0  0  0
    3.7313   -0.1757    2.8545 H   0  0  0  0  0  0  0  0  0  0  0  0
    7.4360   -3.7466    1.9687 H   0  0  0  0  0  0  0  0  0  0  0  0
    7.2152   -4.7232    4.2154 H   0  0  0  0  0  0  0  0  0  0  0  0
    5.1164   -4.4754    5.4739 H   0  0  0  0  0  0  0  0  0  0  0  0
   -1.9457    1.5801   -0.4482 H   0  0  0  0  0  0  0  0  0  0  0  0
    0.8595    3.6606    0.0524 H   0  0  0  0  0  0  0  0  0  0  0  0
    0.7894    6.1132    0.2427 H   0  0  0  0  0  0  0  0  0  0  0  0
   -1.3719    7.2729    0.4448 H   0  0  0  0  0  0  0  0  0  0  0  0
   -3.4694    5.9855    0.4472 H   0  0  0  0  0  0  0  0  0  0  0  0
   -3.4111    3.5333    0.2476 H   0  0  0  0  0  0  0  0  0  0  0  0
  1  2  1  0  0  0  0
  1 28  1  0  0  0  0
  1 29  1  0  0  0  0
  1 30  1  0  0  0  0
  2 11  1  0  0  0  0
  2  3  1  0  0  0  0
  3  8  2  0  0  0  0
  3  4  1  0  0  0  0
  4  5  2  0  0  0  0
  4 31  1  0  0  0  0
  5  6  1  0  0  0  0
  5 21  1  0  0  0  0
  6  7  2  0  0  0  0
  7  8  1  0  0  0  0
  7 32  1  0  0  0  0
  8  9  1  0  0  0  0
  9 10  2  0  0  0  0
  9 33  1  0  0  0  0
 10 11  1  0  0  0  0
 10 13  1  0  0  0  0
 11 12  2  0  0  0  0
 13 18  2  0  0  0  0
 13 14  1  0  0  0  0
 14 15  2  0  0  0  0
 14 20  1  0  0  0  0
 15 16  1  0  0  0  0
 15 34  1  0  0  0  0
 16 17  2  0  0  0  0
 16 35  1  0  0  0  0
 17 18  1  0  0  0  0
 17 36  1  0  0  0  0
 18 19  1  0  0  0  0
 21 22  1  0  0  0  0
 21 37  1  0  0  0  0
 22 27  2  0  0  0  0
 22 23  1  0  0  0  0
 23 24  2  0  0  0  0
 23 38  1  0  0  0  0
 24 25  1  0  0  0  0
 24 39  1  0  0  0  0
 25 26  2  0  0  0  0
 25 40  1  0  0  0  0
 26 27  1  0  0  0  0
 26 41  1  0  0  0  0
 27 42  1  0  0  0  0
M  END
$$$$
ZINC03832361
  -OEChem-08230709403D

 43 46  0     0  0  0  0  0  0999 V2000
   -0.9227    8.3203   -5.4891 C   0  0  0  0  0  0  0  0  0  0  0  0
   -0.8726    9.2922   -4.3940 N   0  0  0  0  0  0  0  0  0  0  0  0
   -0.7231    8.8531   -3.1028 C   0  0  0  0  0  0  0  0  0  0  0  0
   -0.6725    9.7764   -2.0361 C   0  0  0  0  0  0  0  0  0  0  0  0
   -0.7758   11.1632   -2.2902 C   0  0  0  0  0  0  0  0  0  0  0  0
   -0.9248   11.5920   -3.5818 C   0  0  0  0  0  0  0  0  0  0  0  0
   -0.9735   10.6076   -4.6651 C   0  0  0  0  0  0  0  0  0  0  0  0
   -1.1055   10.9805   -5.8172 O   0  0  0  0  0  0  0  0  0  0  0  0
   -1.0363   13.0388   -3.8809 C   0  0  0  0  0  0  0  0  0  0  0  0
   -2.2887   13.6534   -3.9121 C   0  0  0  0  0  0  0  0  0  0  0  0
   -2.3853   15.0035   -4.1868 C   0  0  0  0  0  0  0  0  0  0  0  0
   -1.2449   15.7439   -4.4412 C   0  0  0  0  0  0  0  0  0  0  0  0
   -0.0008   15.1396   -4.4171 C   0  0  0  0  0  0  0  0  0  0  0  0
    0.1101   13.7915   -4.1385 C   0  0  0  0  0  0  0  0  0  0  0  0
    1.6723   13.0348   -4.1093 Cl  0  0  0  0  0  0  0  0  0  0  0  0
   -3.7216   12.7244   -3.6001 Cl  0  0  0  0  0  0  0  0  0  0  0  0
   -0.5182    9.2860   -0.7309 C   0  0  0  0  0  0  0  0  0  0  0  0
   -0.4266    7.9813   -0.5529 N   0  0  0  0  0  0  0  0  0  0  0  0
   -0.4781    7.1416   -1.5811 C   0  0  0  0  0  0  0  0  0  0  0  0
   -0.6174    7.5573   -2.8305 N   0  0  0  0  0  0  0  0  0  0  0  0
   -0.3773    5.7862   -1.3385 N   0  0  0  0  0  0  0  0  0  0  0  0
   -0.2167    5.2976    0.0332 C   0  0  0  0  0  0  0  0  0  0  0  0
   -0.1317    3.7930    0.0238 C   0  0  0  0  0  0  0  0  0  0  0  0
    1.1065    3.1788    0.0086 C   0  0  0  0  0  0  0  0  0  0  0  0
    1.1736    1.7941    0.0005 C   0  0  0  0  0  0  0  0  0  0  0  0
   -0.0126    1.0758    0.0080 C   0  0  0  0  0  0  0  0  0  0  0  0
   -1.2136    1.7592    0.0173 C   0  0  0  0  0  0  0  0  0  0  0  0
   -1.2394    3.0777    0.0305 N   0  0  0  0  0  0  0  0  0  0  0  0
   -1.9564    8.0209   -5.6622 H   0  0  0  0  0  0  0  0  0  0  0  0
   -0.5188    8.7724   -6.3949 H   0  0  0  0  0  0  0  0  0  0  0  0
   -0.3301    7.4444   -5.2249 H   0  0  0  0  0  0  0  0  0  0  0  0
   -0.7377   11.8737   -1.4777 H   0  0  0  0  0  0  0  0  0  0  0  0
   -3.3536   15.4814   -4.2068 H   0  0  0  0  0  0  0  0  0  0  0  0
   -1.3262   16.7984   -4.6600 H   0  0  0  0  0  0  0  0  0  0  0  0
    0.8856   15.7233   -4.6170 H   0  0  0  0  0  0  0  0  0  0  0  0
   -0.4750    9.9617    0.1105 H   0  0  0  0  0  0  0  0  0  0  0  0
   -0.4128    5.1575   -2.0763 H   0  0  0  0  0  0  0  0  0  0  0  0
   -1.0721    5.6094    0.6325 H   0  0  0  0  0  0  0  0  0  0  0  0
    0.6968    5.7104    0.4613 H   0  0  0  0  0  0  0  0  0  0  0  0
    2.0102    3.7701    0.0028 H   0  0  0  0  0  0  0  0  0  0  0  0
    2.1270    1.2869   -0.0117 H   0  0  0  0  0  0  0  0  0  0  0  0
    0.0021   -0.0041    0.0020 H   0  0  0  0  0  0  0  0  0  0  0  0
   -2.1418    1.2071    0.0183 H   0  0  0  0  0  0  0  0  0  0  0  0
  1  2  1  0  0  0  0
  1 29  1  0  0  0  0
  1 30  1  0  0  0  0
  1 31  1  0  0  0  0
  2  7  1  0  0  0  0
  2  3  1  0  0  0  0
  3 20  2  0  0  0  0
  3  4  1  0  0  0  0
  4  5  1  0  0  0  0
  4 17  2  0  0  0  0
  5  6  2  0  0  0  0
  5 32  1  0  0  0  0
  6  7  1  0  0  0  0
  6  9  1  0  0  0  0
  7  8  2  0  0  0  0
  9 14  2  0  0  0  0
  9 10  1  0  0  0  0
 10 11  2  0  0  0  0
 10 16  1  0  0  0  0
 11 12  1  0  0  0  0
 11 33  1  0  0  0  0
 12 13  2  0  0  0  0
 12 34  1  0  0  0  0
 13 14  1  0  0  0  0
 13 35  1  0  0  0  0
 14 15  1  0  0  0  0
 17 18  1  0  0  0  0
 17 36  1  0  0  0  0
 18 19  2  0  0  0  0
 19 20  1  0  0  0  0
 19 21  1  0  0  0  0
 21 22  1  0  0  0  0
 21 37  1  0  0  0  0
 22 23  1  0  0  0  0
 22 38  1  0  0  0  0
 22 39  1  0  0  0  0
 23 28  2  0  0  0  0
 23 24  1  0  0  0  0
 24 25  2  0  0  0  0
 24 40  1  0  0  0  0
 25 26  1  0  0  0  0
 25 41  1  0  0  0  0
 26 27  2  0  0  0  0
 26 42  1  0  0  0  0
 27 28  1  0  0  0  0
 27 43  1  0  0  0  0
M  END
$$$$
ZINC03832362
  -OEChem-08230709403D

 54 56  0     0  0  0  0  0  0999 V2000
    1.4053   -7.2271    1.1983 C   0  0  0  0  0  0  0  0  0  0  0  0
    2.8788   -7.0975    0.8072 C   0  0  0  0  0  0  0  0  0  0  0  0
    3.4826   -8.4914    0.6249 C   0  0  0  0  0  0  0  0  0  0  0  0
    2.9842   -6.3689   -0.4176 O   0  0  0  0  0  0  0  0  0  0  0  0
    3.1041   -5.0157   -0.3235 C   0  0  0  0  0  0  0  0  0  0  0  0
    4.3632   -4.4336   -0.2372 C   0  0  0  0  0  0  0  0  0  0  0  0
    4.4844   -3.0562   -0.1420 C   0  0  0  0  0  0  0  0  0  0  0  0
    3.3485   -2.2579   -0.1328 C   0  0  0  0  0  0  0  0  0  0  0  0
    2.0901   -2.8391   -0.2138 C   0  0  0  0  0  0  0  0  0  0  0  0
    1.9675   -4.2160   -0.3144 C   0  0  0  0  0  0  0  0  0  0  0  0
    0.7350   -4.7847   -0.3988 O   0  0  0  0  0  0  0  0  0  0  0  0
   -0.3890   -3.9024   -0.3837 C   0  0  0  0  0  0  0  0  0  0  0  0
    3.4717   -0.8671   -0.0362 N   0  0  0  0  0  0  0  0  0  0  0  0
    4.5260   -0.2233   -0.6518 C   0  0  0  0  0  0  0  0  0  0  0  0
    4.7377    1.1639   -0.4674 C   0  0  0  0  0  0  0  0  0  0  0  0
    3.8969    1.9406    0.3393 C   0  0  0  0  0  0  0  0  0  0  0  0
    4.1437    3.2759    0.4847 C   0  0  0  0  0  0  0  0  0  0  0  0
    5.2303    3.8786   -0.1650 C   0  0  0  0  0  0  0  0  0  0  0  0
    6.0718    3.1368   -0.9637 C   0  0  0  0  0  0  0  0  0  0  0  0
    5.8377    1.7657   -1.1267 C   0  0  0  0  0  0  0  0  0  0  0  0
    6.6276    0.9987   -1.8944 N   0  0  0  0  0  0  0  0  0  0  0  0
    6.3825   -0.2830   -2.0290 C   0  0  0  0  0  0  0  0  0  0  0  0
    5.3678   -0.8882   -1.4325 N   0  0  0  0  0  0  0  0  0  0  0  0
    5.4551    5.2088   -0.0051 O   0  0  0  0  0  0  0  0  0  0  0  0
    6.5778    5.7643   -0.6929 C   0  0  0  0  0  0  0  0  0  0  0  0
    3.3269    4.0292    1.2687 O   0  0  0  0  0  0  0  0  0  0  0  0
    2.2375    3.3575    1.9043 C   0  0  0  0  0  0  0  0  0  0  0  0
    5.4759   -5.2154   -0.2457 O   0  0  0  0  0  0  0  0  0  0  0  0
    6.7371   -4.5498   -0.1533 C   0  0  0  0  0  0  0  0  0  0  0  0
    0.8661   -7.7567    0.4129 H   0  0  0  0  0  0  0  0  0  0  0  0
    1.3249   -7.7828    2.1325 H   0  0  0  0  0  0  0  0  0  0  0  0
    0.9752   -6.2340    1.3282 H   0  0  0  0  0  0  0  0  0  0  0  0
    3.4180   -6.5678    1.5926 H   0  0  0  0  0  0  0  0  0  0  0  0
    4.5323   -8.3991    0.3463 H   0  0  0  0  0  0  0  0  0  0  0  0
    3.4022   -9.0472    1.5591 H   0  0  0  0  0  0  0  0  0  0  0  0
    2.9434   -9.0211   -0.1605 H   0  0  0  0  0  0  0  0  0  0  0  0
    5.4628   -2.6037   -0.0752 H   0  0  0  0  0  0  0  0  0  0  0  0
    1.2068   -2.2177   -0.2025 H   0  0  0  0  0  0  0  0  0  0  0  0
   -1.3081   -4.4836   -0.4569 H   0  0  0  0  0  0  0  0  0  0  0  0
   -0.3919   -3.3336    0.5462 H   0  0  0  0  0  0  0  0  0  0  0  0
   -0.3242   -3.2169   -1.2287 H   0  0  0  0  0  0  0  0  0  0  0  0
    2.8162   -0.3556    0.4634 H   0  0  0  0  0  0  0  0  0  0  0  0
    3.0572    1.4859    0.8437 H   0  0  0  0  0  0  0  0  0  0  0  0
    6.9062    3.6090   -1.4608 H   0  0  0  0  0  0  0  0  0  0  0  0
    7.0382   -0.8707   -2.6543 H   0  0  0  0  0  0  0  0  0  0  0  0
    7.4899    5.2708   -0.3575 H   0  0  0  0  0  0  0  0  0  0  0  0
    6.4571    5.6145   -1.7658 H   0  0  0  0  0  0  0  0  0  0  0  0
    6.6427    6.8313   -0.4801 H   0  0  0  0  0  0  0  0  0  0  0  0
    1.6669    4.0718    2.4979 H   0  0  0  0  0  0  0  0  0  0  0  0
    1.5905    2.9164    1.1460 H   0  0  0  0  0  0  0  0  0  0  0  0
    2.6240    2.5721    2.5537 H   0  0  0  0  0  0  0  0  0  0  0  0
    6.7827   -3.9855    0.7781 H   0  0  0  0  0  0  0  0  0  0  0  0
    7.5393   -5.2875   -0.1708 H   0  0  0  0  0  0  0  0  0  0  0  0
    6.8511   -3.8688   -0.9967 H   0  0  0  0  0  0  0  0  0  0  0  0
  1  2  1  0  0  0  0
  1 30  1  0  0  0  0
  1 31  1  0  0  0  0
  1 32  1  0  0  0  0
  2  3  1  0  0  0  0
  2  4  1  0  0  0  0
  2 33  1  0  0  0  0
  3 34  1  0  0  0  0
  3 35  1  0  0  0  0
  3 36  1  0  0  0  0
  4  5  1  0  0  0  0
  5 10  2  0  0  0  0
  5  6  1  0  0  0  0
  6  7  2  0  0  0  0
  6 28  1  0  0  0  0
  7  8  1  0  0  0  0
  7 37  1  0  0  0  0
  8  9  2  0  0  0  0
  8 13  1  0  0  0  0
  9 10  1  0  0  0  0
  9 38  1  0  0  0  0
 10 11  1  0  0  0  0
 11 12  1  0  0  0  0
 12 39  1  0  0  0  0
 12 40  1  0  0  0  0
 12 41  1  0  0  0  0
 13 14  1  0  0  0  0
 13 42  1  0  0  0  0
 14 23  2  0  0  0  0
 14 15  1  0  0  0  0
 15 20  2  0  0  0  0
 15 16  1  0  0  0  0
 16 17  2  0  0  0  0
 16 43  1  0  0  0  0
 17 18  1  0  0  0  0
 17 26  1  0  0  0  0
 18 19  2  0  0  0  0
 18 24  1  0  0  0  0
 19 20  1  0  0  0  0
 19 44  1  0  0  0  0
 20 21  1  0  0  0  0
 21 22  2  0  0  0  0
 22 23  1  0  0  0  0
 22 45  1  0  0  0  0
 24 25  1  0  0  0  0
 25 46  1  0  0  0  0
 25 47  1  0  0  0  0
 25 48  1  0  0  0  0
 26 27  1  0  0  0  0
 27 49  1  0  0  0  0
 27 50  1  0  0  0  0
 27 51  1  0  0  0  0
 28 29  1  0  0  0  0
 29 52  1  0  0  0  0
 29 53  1  0  0  0  0
 29 54  1  0  0  0  0
M  END
$$$$
ZINC03832363
  -OEChem-08230709403D

 40 43  0     0  0  0  0  0  0999 V2000
   -4.1223   -0.1180   -2.1867 C   0  0  0  0  0  0  0  0  0  0  0  0
   -4.1526   -0.5760   -3.4876 C   0  0  0  0  0  0  0  0  0  0  0  0
   -3.0469   -1.2467   -4.0141 C   0  0  0  0  0  0  0  0  0  0  0  0
   -1.9155   -1.4449   -3.2203 C   0  0  0  0  0  0  0  0  0  0  0  0
   -1.8969   -0.9774   -1.9226 C   0  0  0  0  0  0  0  0  0  0  0  0
   -2.9959   -0.3131   -1.4074 C   0  0  0  0  0  0  0  0  0  0  0  0
   -2.9682    0.1947    0.0112 C   0  0  0  0  0  0  0  0  0  0  0  0
   -2.5094    1.5860    0.0230 N   0  0  0  0  0  0  0  0  0  0  0  0
   -3.3217    2.6905   -0.1787 C   0  0  0  0  0  0  0  0  0  0  0  0
   -4.6846    2.8149   -0.4304 C   0  0  0  0  0  0  0  0  0  0  0  0
   -5.2469    4.0664   -0.5951 C   0  0  0  0  0  0  0  0  0  0  0  0
   -4.4563    5.2127   -0.5108 C   0  0  0  0  0  0  0  0  0  0  0  0
   -3.1026    5.1030   -0.2620 C   0  0  0  0  0  0  0  0  0  0  0  0
   -2.5306    3.8440   -0.0823 C   0  0  0  0  0  0  0  0  0  0  0  0
   -1.1532    3.3879    0.1822 C   0  0  0  0  0  0  0  0  0  0  0  0
   -1.2004    1.9877    0.2380 C   0  0  0  0  0  0  0  0  0  0  0  0
   -0.0291    1.2740    0.4851 C   0  0  0  0  0  0  0  0  0  0  0  0
    1.1693    1.9496    0.6612 C   0  0  0  0  0  0  0  0  0  0  0  0
    1.2106    3.3373    0.5986 C   0  0  0  0  0  0  0  0  0  0  0  0
    0.0578    4.0558    0.3609 C   0  0  0  0  0  0  0  0  0  0  0  0
    0.1193    5.9439    0.2767 Br  0  0  0  0  0  0  0  0  0  0  0  0
    2.3114    1.2495    0.8970 O   0  0  0  0  0  0  0  0  0  0  0  0
   -0.0602   -0.0853    0.5481 O   0  0  0  0  0  0  0  0  0  0  0  0
   -5.0198    6.4404   -0.6744 O   0  0  0  0  0  0  0  0  0  0  0  0
   -6.5796    4.1813   -0.8404 O   0  0  0  0  0  0  0  0  0  0  0  0
   -3.0735   -1.7297   -5.3620 C   0  0  0  0  0  0  0  0  0  0  0  0
   -3.0945   -2.1128   -6.4312 N   0  0  0  0  0  0  0  0  0  0  0  0
   -4.9783    0.3974   -1.7769 H   0  0  0  0  0  0  0  0  0  0  0  0
   -5.0310   -0.4193   -4.0962 H   0  0  0  0  0  0  0  0  0  0  0  0
   -1.0567   -1.9626   -3.6214 H   0  0  0  0  0  0  0  0  0  0  0  0
   -1.0224   -1.1299   -1.3074 H   0  0  0  0  0  0  0  0  0  0  0  0
   -2.2875   -0.4173    0.6030 H   0  0  0  0  0  0  0  0  0  0  0  0
   -3.9701    0.1389    0.4368 H   0  0  0  0  0  0  0  0  0  0  0  0
   -5.3036    1.9324   -0.4968 H   0  0  0  0  0  0  0  0  0  0  0  0
   -2.4904    5.9903   -0.1966 H   0  0  0  0  0  0  0  0  0  0  0  0
    2.1485    3.8547    0.7370 H   0  0  0  0  0  0  0  0  0  0  0  0
    2.7941    1.0030    0.0962 H   0  0  0  0  0  0  0  0  0  0  0  0
   -0.1431   -0.4356    1.4456 H   0  0  0  0  0  0  0  0  0  0  0  0
   -5.3390    6.8392    0.1466 H   0  0  0  0  0  0  0  0  0  0  0  0
   -7.1211    4.2587   -0.0430 H   0  0  0  0  0  0  0  0  0  0  0  0
  1  6  2  0  0  0  0
  1  2  1  0  0  0  0
  1 28  1  0  0  0  0
  2  3  2  0  0  0  0
  2 29  1  0  0  0  0
  3  4  1  0  0  0  0
  3 26  1  0  0  0  0
  4  5  2  0  0  0  0
  4 30  1  0  0  0  0
  5  6  1  0  0  0  0
  5 31  1  0  0  0  0
  6  7  1  0  0  0  0
  7  8  1  0  0  0  0
  7 32  1  0  0  0  0
  7 33  1  0  0  0  0
  8 16  1  0  0  0  0
  8  9  1  0  0  0  0
  9 14  2  0  0  0  0
  9 10  1  0  0  0  0
 10 11  2  0  0  0  0
 10 34  1  0  0  0  0
 11 12  1  0  0  0  0
 11 25  1  0  0  0  0
 12 13  2  0  0  0  0
 12 24  1  0  0  0  0
 13 14  1  0  0  0  0
 13 35  1  0  0  0  0
 14 15  1  0  0  0  0
 15 20  2  0  0  0  0
 15 16  1  0  0  0  0
 16 17  2  0  0  0  0
 17 18  1  0  0  0  0
 17 23  1  0  0  0  0
 18 19  2  0  0  0  0
 18 22  1  0  0  0  0
 19 20  1  0  0  0  0
 19 36  1  0  0  0  0
 20 21  1  0  0  0  0
 22 37  1  0  0  0  0
 23 38  1  0  0  0  0
 24 39  1  0  0  0  0
 25 40  1  0  0  0  0
 26 27  3  0  0  0  0
M  END
$$$$
ZINC03832364
  -OEChem-08230709403D

 39 42  0     0  0  0  0  0  0999 V2000
   -1.6158    7.8353   -3.9564 C   0  0  0  0  0  0  0  0  0  0  0  0
   -2.4124    6.8676   -3.3737 C   0  0  0  0  0  0  0  0  0  0  0  0
   -2.1604    6.4515   -2.0785 C   0  0  0  0  0  0  0  0  0  0  0  0
   -1.1110    7.0042   -1.3666 C   0  0  0  0  0  0  0  0  0  0  0  0
   -0.3176    7.9767   -1.9482 C   0  0  0  0  0  0  0  0  0  0  0  0
   -0.5673    8.3882   -3.2454 C   0  0  0  0  0  0  0  0  0  0  0  0
    0.9952    8.6759   -1.0531 Cl  0  0  0  0  0  0  0  0  0  0  0  0
   -0.8360    6.5514    0.0443 C   0  0  0  0  0  0  0  0  0  0  0  0
    0.3616    5.7078    0.0617 N   0  0  0  0  0  0  0  0  0  0  0  0
    0.4406    4.4319   -0.4729 C   0  0  0  0  0  0  0  0  0  0  0  0
   -0.4938    3.6328   -1.1247 C   0  0  0  0  0  0  0  0  0  0  0  0
   -0.1379    2.3740   -1.5698 C   0  0  0  0  0  0  0  0  0  0  0  0
    1.1532    1.8894   -1.3590 C   0  0  0  0  0  0  0  0  0  0  0  0
    2.0895    2.6720   -0.7131 C   0  0  0  0  0  0  0  0  0  0  0  0
    1.7394    3.9459   -0.2669 C   0  0  0  0  0  0  0  0  0  0  0  0
    2.4789    5.0094    0.4388 C   0  0  0  0  0  0  0  0  0  0  0  0
    1.5797    6.0709    0.6144 C   0  0  0  0  0  0  0  0  0  0  0  0
    2.0072    7.2290    1.2614 C   0  0  0  0  0  0  0  0  0  0  0  0
    3.3115    7.3219    1.7238 C   0  0  0  0  0  0  0  0  0  0  0  0
    4.1975    6.2659    1.5463 C   0  0  0  0  0  0  0  0  0  0  0  0
    3.7869    5.1154    0.9081 C   0  0  0  0  0  0  0  0  0  0  0  0
    3.7259    8.4532    2.3552 O   0  0  0  0  0  0  0  0  0  0  0  0
    1.1457    8.2673    1.4395 O   0  0  0  0  0  0  0  0  0  0  0  0
    1.4919    0.6459   -1.7955 O   0  0  0  0  0  0  0  0  0  0  0  0
   -1.0537    1.6002   -2.2116 O   0  0  0  0  0  0  0  0  0  0  0  0
   -3.1607    5.2358   -1.3470 Cl  0  0  0  0  0  0  0  0  0  0  0  0
   -1.8128    8.1597   -4.9675 H   0  0  0  0  0  0  0  0  0  0  0  0
   -3.2319    6.4365   -3.9295 H   0  0  0  0  0  0  0  0  0  0  0  0
    0.0548    9.1442   -3.7012 H   0  0  0  0  0  0  0  0  0  0  0  0
   -1.6876    5.9812    0.4154 H   0  0  0  0  0  0  0  0  0  0  0  0
   -0.6765    7.4219    0.6806 H   0  0  0  0  0  0  0  0  0  0  0  0
   -1.4967    3.9991   -1.2877 H   0  0  0  0  0  0  0  0  0  0  0  0
    3.0902    2.2984   -0.5536 H   0  0  0  0  0  0  0  0  0  0  0  0
    5.2111    6.3471    1.9100 H   0  0  0  0  0  0  0  0  0  0  0  0
    4.4780    4.2966    0.7722 H   0  0  0  0  0  0  0  0  0  0  0  0
    3.5951    8.4393    3.3132 H   0  0  0  0  0  0  0  0  0  0  0  0
    0.6463    8.2266    2.2666 H   0  0  0  0  0  0  0  0  0  0  0  0
    1.3393   -0.0540   -1.1460 H   0  0  0  0  0  0  0  0  0  0  0  0
   -1.5730    1.0353   -1.6231 H   0  0  0  0  0  0  0  0  0  0  0  0
  1  6  2  0  0  0  0
  1  2  1  0  0  0  0
  1 27  1  0  0  0  0
  2  3  2  0  0  0  0
  2 28  1  0  0  0  0
  3  4  1  0  0  0  0
  3 26  1  0  0  0  0
  4  5  2  0  0  0  0
  4  8  1  0  0  0  0
  5  6  1  0  0  0  0
  5  7  1  0  0  0  0
  6 29  1  0  0  0  0
  8  9  1  0  0  0  0
  8 30  1  0  0  0  0
  8 31  1  0  0  0  0
  9 17  1  0  0  0  0
  9 10  1  0  0  0  0
 10 15  2  0  0  0  0
 10 11  1  0  0  0  0
 11 12  2  0  0  0  0
 11 32  1  0  0  0  0
 12 13  1  0  0  0  0
 12 25  1  0  0  0  0
 13 14  2  0  0  0  0
 13 24  1  0  0  0  0
 14 15  1  0  0  0  0
 14 33  1  0  0  0  0
 15 16  1  0  0  0  0
 16 21  2  0  0  0  0
 16 17  1  0  0  0  0
 17 18  2  0  0  0  0
 18 19  1  0  0  0  0
 18 23  1  0  0  0  0
 19 20  2  0  0  0  0
 19 22  1  0  0  0  0
 20 21  1  0  0  0  0
 20 34  1  0  0  0  0
 21 35  1  0  0  0  0
 22 36  1  0  0  0  0
 23 37  1  0  0  0  0
 24 38  1  0  0  0  0
 25 39  1  0  0  0  0
M  END
$$$$
ZINC03832365
  -OEChem-08230709403D

 46 48  0     0  0  0  0  0  0999 V2000
    7.0451    0.1241    1.8850 C   0  0  0  0  0  0  0  0  0  0  0  0
    7.0922    1.5209    1.5872 O   0  0  0  0  0  0  0  0  0  0  0  0
    5.9289    2.1087    1.1964 C   0  0  0  0  0  0  0  0  0  0  0  0
    4.7695    1.3558    1.1029 C   0  0  0  0  0  0  0  0  0  0  0  0
    3.5861    1.9524    0.7117 C   0  0  0  0  0  0  0  0  0  0  0  0
    3.5585    3.3058    0.4011 C   0  0  0  0  0  0  0  0  0  0  0  0
    4.7187    4.0631    0.4938 C   0  0  0  0  0  0  0  0  0  0  0  0
    5.9036    3.4661    0.8910 C   0  0  0  0  0  0  0  0  0  0  0  0
    7.0412    4.2056    0.9821 O   0  0  0  0  0  0  0  0  0  0  0  0
    6.9415    5.5926    0.6530 C   0  0  0  0  0  0  0  0  0  0  0  0
    2.3604    3.9075    0.0005 N   0  0  0  0  0  0  0  0  0  0  0  0
    1.2363    3.1344   -0.2092 C   0  0  0  0  0  0  0  0  0  0  0  0
    0.3240    2.8725    0.8392 C   0  0  0  0  0  0  0  0  0  0  0  0
    0.5333    3.3907    2.1260 C   0  0  0  0  0  0  0  0  0  0  0  0
   -0.3631    3.1230    3.1199 C   0  0  0  0  0  0  0  0  0  0  0  0
   -1.4935    2.3327    2.8677 C   0  0  0  0  0  0  0  0  0  0  0  0
   -1.7216    1.8121    1.6145 C   0  0  0  0  0  0  0  0  0  0  0  0
   -0.8146    2.0736    0.5758 C   0  0  0  0  0  0  0  0  0  0  0  0
   -1.0230    1.5789   -0.6533 N   0  0  0  0  0  0  0  0  0  0  0  0
   -0.1930    1.8010   -1.6403 C   0  0  0  0  0  0  0  0  0  0  0  0
    0.9613    2.5820   -1.4695 C   0  0  0  0  0  0  0  0  0  0  0  0
    1.8482    2.8128   -2.5699 C   0  0  0  0  0  0  0  0  0  0  0  0
    2.5517    2.9959   -3.4428 N   0  0  0  0  0  0  0  0  0  0  0  0
   -2.3726    2.0777    3.8715 O   0  0  0  0  0  0  0  0  0  0  0  0
   -3.5044    1.2658    3.5521 C   0  0  0  0  0  0  0  0  0  0  0  0
   -0.1576    3.6266    4.3661 O   0  0  0  0  0  0  0  0  0  0  0  0
    1.0124    4.4242    4.5588 C   0  0  0  0  0  0  0  0  0  0  0  0
    6.3410   -0.0505    2.6986 H   0  0  0  0  0  0  0  0  0  0  0  0
    6.7220   -0.4253    1.0008 H   0  0  0  0  0  0  0  0  0  0  0  0
    8.0364   -0.2175    2.1829 H   0  0  0  0  0  0  0  0  0  0  0  0
    4.7899    0.3024    1.3401 H   0  0  0  0  0  0  0  0  0  0  0  0
    2.6825    1.3647    0.6434 H   0  0  0  0  0  0  0  0  0  0  0  0
    4.6970    5.1166    0.2568 H   0  0  0  0  0  0  0  0  0  0  0  0
    6.6054    5.6981   -0.3785 H   0  0  0  0  0  0  0  0  0  0  0  0
    6.2254    6.0736    1.3194 H   0  0  0  0  0  0  0  0  0  0  0  0
    7.9175    6.0642    0.7672 H   0  0  0  0  0  0  0  0  0  0  0  0
    2.3198    4.8678   -0.1300 H   0  0  0  0  0  0  0  0  0  0  0  0
    1.4014    4.0002    2.3296 H   0  0  0  0  0  0  0  0  0  0  0  0
   -2.5953    1.2042    1.4309 H   0  0  0  0  0  0  0  0  0  0  0  0
   -0.4034    1.3770   -2.6111 H   0  0  0  0  0  0  0  0  0  0  0  0
   -4.0875    1.7478    2.7674 H   0  0  0  0  0  0  0  0  0  0  0  0
   -3.1650    0.2898    3.2051 H   0  0  0  0  0  0  0  0  0  0  0  0
   -4.1238    1.1404    4.4401 H   0  0  0  0  0  0  0  0  0  0  0  0
    1.0555    4.7619    5.5943 H   0  0  0  0  0  0  0  0  0  0  0  0
    1.8981    3.8303    4.3331 H   0  0  0  0  0  0  0  0  0  0  0  0
    0.9760    5.2887    3.8959 H   0  0  0  0  0  0  0  0  0  0  0  0
  1  2  1  0  0  0  0
  1 28  1  0  0  0  0
  1 29  1  0  0  0  0
  1 30  1  0  0  0  0
  2  3  1  0  0  0  0
  3  8  2  0  0  0  0
  3  4  1  0  0  0  0
  4  5  2  0  0  0  0
  4 31  1  0  0  0  0
  5  6  1  0  0  0  0
  5 32  1  0  0  0  0
  6  7  2  0  0  0  0
  6 11  1  0  0  0  0
  7  8  1  0  0  0  0
  7 33  1  0  0  0  0
  8  9  1  0  0  0  0
  9 10  1  0  0  0  0
 10 34  1  0  0  0  0
 10 35  1  0  0  0  0
 10 36  1  0  0  0  0
 11 12  1  0  0  0  0
 11 37  1  0  0  0  0
 12 21  2  0  0  0  0
 12 13  1  0  0  0  0
 13 18  2  0  0  0  0
 13 14  1  0  0  0  0
 14 15  2  0  0  0  0
 14 38  1  0  0  0  0
 15 16  1  0  0  0  0
 15 26  1  0  0  0  0
 16 17  2  0  0  0  0
 16 24  1  0  0  0  0
 17 18  1  0  0  0  0
 17 39  1  0  0  0  0
 18 19  1  0  0  0  0
 19 20  2  0  0  0  0
 20 21  1  0  0  0  0
 20 40  1  0  0  0  0
 21 22  1  0  0  0  0
 22 23  3  0  0  0  0
 24 25  1  0  0  0  0
 25 41  1  0  0  0  0
 25 42  1  0  0  0  0
 25 43  1  0  0  0  0
 26 27  1  0  0  0  0
 27 44  1  0  0  0  0
 27 45  1  0  0  0  0
 27 46  1  0  0  0  0
M  END
$$$$
ZINC03832366
  -OEChem-08230709403D

 46 48  0     0  0  0  0  0  0999 V2000
   -8.4339    3.0742    0.5386 C   0  0  0  0  0  0  0  0  0  0  0  0
   -7.2452    3.8318    0.3042 O   0  0  0  0  0  0  0  0  0  0  0  0
   -6.0630    3.1671    0.3898 C   0  0  0  0  0  0  0  0  0  0  0  0
   -4.8714    3.8419    0.1738 C   0  0  0  0  0  0  0  0  0  0  0  0
   -3.6634    3.1626    0.2618 C   0  0  0  0  0  0  0  0  0  0  0  0
   -3.6506    1.8065    0.5605 C   0  0  0  0  0  0  0  0  0  0  0  0
   -4.8429    1.1346    0.7819 C   0  0  0  0  0  0  0  0  0  0  0  0
   -6.0489    1.8139    0.6937 C   0  0  0  0  0  0  0  0  0  0  0  0
   -4.8303   -0.1912    1.0801 O   0  0  0  0  0  0  0  0  0  0  0  0
   -6.0957   -0.8209    1.2904 C   0  0  0  0  0  0  0  0  0  0  0  0
   -2.4620    3.8418    0.0444 N   0  0  0  0  0  0  0  0  0  0  0  0
   -1.2714    3.1436    0.0058 C   0  0  0  0  0  0  0  0  0  0  0  0
   -0.5511    2.8621    1.1897 C   0  0  0  0  0  0  0  0  0  0  0  0
   -1.0249    3.2830    2.4414 C   0  0  0  0  0  0  0  0  0  0  0  0
   -0.3107    2.9972    3.5688 C   0  0  0  0  0  0  0  0  0  0  0  0
    0.8946    2.2851    3.4889 C   0  0  0  0  0  0  0  0  0  0  0  0
    1.3818    1.8622    2.2734 C   0  0  0  0  0  0  0  0  0  0  0  0
    0.6650    2.1430    1.0998 C   0  0  0  0  0  0  0  0  0  0  0  0
    1.1227    1.7366   -0.0935 N   0  0  0  0  0  0  0  0  0  0  0  0
    0.4767    1.9829   -1.2046 C   0  0  0  0  0  0  0  0  0  0  0  0
   -0.7341    2.6939   -1.2098 C   0  0  0  0  0  0  0  0  0  0  0  0
   -1.4158    2.9531   -2.4422 C   0  0  0  0  0  0  0  0  0  0  0  0
   -1.9566    3.1586   -3.4198 N   0  0  0  0  0  0  0  0  0  0  0  0
    1.5895    2.0108    4.6235 O   0  0  0  0  0  0  0  0  0  0  0  0
    2.8099    1.2822    4.4767 C   0  0  0  0  0  0  0  0  0  0  0  0
   -0.7723    3.4063    4.7806 O   0  0  0  0  0  0  0  0  0  0  0  0
   -2.0062    4.1270    4.7952 C   0  0  0  0  0  0  0  0  0  0  0  0
   -8.4055    2.6556    1.5447 H   0  0  0  0  0  0  0  0  0  0  0  0
   -9.3039    3.7233    0.4397 H   0  0  0  0  0  0  0  0  0  0  0  0
   -8.4991    2.2658   -0.1895 H   0  0  0  0  0  0  0  0  0  0  0  0
   -4.8825    4.8957   -0.0625 H   0  0  0  0  0  0  0  0  0  0  0  0
   -2.7119    1.2763    0.6248 H   0  0  0  0  0  0  0  0  0  0  0  0
   -6.9776    1.2888    0.8615 H   0  0  0  0  0  0  0  0  0  0  0  0
   -6.6079   -0.3383    2.1228 H   0  0  0  0  0  0  0  0  0  0  0  0
   -6.7014   -0.7293    0.3889 H   0  0  0  0  0  0  0  0  0  0  0  0
   -5.9431   -1.8754    1.5200 H   0  0  0  0  0  0  0  0  0  0  0  0
   -2.4643    4.8039   -0.0795 H   0  0  0  0  0  0  0  0  0  0  0  0
   -1.9526    3.8314    2.5127 H   0  0  0  0  0  0  0  0  0  0  0  0
    2.3113    1.3147    2.2229 H   0  0  0  0  0  0  0  0  0  0  0  0
    0.8871    1.6345   -2.1409 H   0  0  0  0  0  0  0  0  0  0  0  0
    2.6027    0.3148    4.0191 H   0  0  0  0  0  0  0  0  0  0  0  0
    3.4950    1.8448    3.8424 H   0  0  0  0  0  0  0  0  0  0  0  0
    3.2630    1.1311    5.4565 H   0  0  0  0  0  0  0  0  0  0  0  0
   -2.2593    4.3933    5.8214 H   0  0  0  0  0  0  0  0  0  0  0  0
   -1.9043    5.0339    4.1992 H   0  0  0  0  0  0  0  0  0  0  0  0
   -2.7960    3.5036    4.3762 H   0  0  0  0  0  0  0  0  0  0  0  0
  1  2  1  0  0  0  0
  1 28  1  0  0  0  0
  1 29  1  0  0  0  0
  1 30  1  0  0  0  0
  2  3  1  0  0  0  0
  3  8  2  0  0  0  0
  3  4  1  0  0  0  0
  4  5  2  0  0  0  0
  4 31  1  0  0  0  0
  5  6  1  0  0  0  0
  5 11  1  0  0  0  0
  6  7  2  0  0  0  0
  6 32  1  0  0  0  0
  7  8  1  0  0  0  0
  7  9  1  0  0  0  0
  8 33  1  0  0  0  0
  9 10  1  0  0  0  0
 10 34  1  0  0  0  0
 10 35  1  0  0  0  0
 10 36  1  0  0  0  0
 11 12  1  0  0  0  0
 11 37  1  0  0  0  0
 12 21  2  0  0  0  0
 12 13  1  0  0  0  0
 13 18  2  0  0  0  0
 13 14  1  0  0  0  0
 14 15  2  0  0  0  0
 14 38  1  0  0  0  0
 15 16  1  0  0  0  0
 15 26  1  0  0  0  0
 16 17  2  0  0  0  0
 16 24  1  0  0  0  0
 17 18  1  0  0  0  0
 17 39  1  0  0  0  0
 18 19  1  0  0  0  0
 19 20  2  0  0  0  0
 20 21  1  0  0  0  0
 20 40  1  0  0  0  0
 21 22  1  0  0  0  0
 22 23  3  0  0  0  0
 24 25  1  0  0  0  0
 25 41  1  0  0  0  0
 25 42  1  0  0  0  0
 25 43  1  0  0  0  0
 26 27  1  0  0  0  0
 27 44  1  0  0  0  0
 27 45  1  0  0  0  0
 27 46  1  0  0  0  0
M  END
$$$$
ZINC03834086
  -OEChem-08230709403D

 34 36  0     0  0  0  0  0  0999 V2000
   -0.1221    7.2692   -1.3870 H   0  0  0  0  0  0  0  0  0  0  0  0
   -1.0014    6.8930   -1.2252 N   0  0  0  0  0  0  0  0  0  0  0  0
   -1.1277    5.8205   -0.4909 C   0  0  0  0  0  0  0  0  0  0  0  0
   -2.4581    5.2269   -0.2290 C   0  0  0  0  0  0  0  0  0  0  0  0
   -2.5011    3.8666    0.0381 C   0  0  0  0  0  0  0  0  0  0  0  0
   -1.2292    3.1389    0.0363 C   0  0  0  0  0  0  0  0  0  0  0  0
   -1.2055    1.7385    0.0227 C   0  0  0  0  0  0  0  0  0  0  0  0
   -0.0088    1.0789    0.0191 C   0  0  0  0  0  0  0  0  0  0  0  0
    1.1858    1.7838    0.0190 C   0  0  0  0  0  0  0  0  0  0  0  0
    1.1868    3.1682    0.0295 C   0  0  0  0  0  0  0  0  0  0  0  0
   -0.0216    3.8589    0.0398 C   0  0  0  0  0  0  0  0  0  0  0  0
   -0.0426    5.2145    0.0562 O   0  0  0  0  0  0  0  0  0  0  0  0
    2.3632    3.8502    0.0302 O   0  0  0  0  0  0  0  0  0  0  0  0
   -3.6816    6.0442   -0.2516 C   0  0  0  0  0  0  0  0  0  0  0  0
   -4.7615    5.5286   -0.0329 O   0  0  0  0  0  0  0  0  0  0  0  0
   -3.6058    7.3638   -0.5145 N   0  0  0  0  0  0  0  0  0  0  0  0
   -4.7751    8.1213   -0.6340 C   0  0  0  0  0  0  0  0  0  0  0  0
   -4.8335    9.1723   -1.5411 C   0  0  0  0  0  0  0  0  0  0  0  0
   -5.9906    9.9167   -1.6631 C   0  0  0  0  0  0  0  0  0  0  0  0
   -7.0889    9.6258   -0.8760 C   0  0  0  0  0  0  0  0  0  0  0  0
   -7.0344    8.5810    0.0356 C   0  0  0  0  0  0  0  0  0  0  0  0
   -5.8770    7.8279    0.1570 C   0  0  0  0  0  0  0  0  0  0  0  0
   -8.1149    8.2965    0.8091 O   0  0  0  0  0  0  0  0  0  0  0  0
   -3.4353    3.3634    0.2393 H   0  0  0  0  0  0  0  0  0  0  0  0
   -2.1307    1.1813    0.0195 H   0  0  0  0  0  0  0  0  0  0  0  0
    0.0070   -0.0010    0.0117 H   0  0  0  0  0  0  0  0  0  0  0  0
    2.1234    1.2480    0.0103 H   0  0  0  0  0  0  0  0  0  0  0  0
    2.7001    4.0542   -0.8529 H   0  0  0  0  0  0  0  0  0  0  0  0
   -2.7401    7.7882   -0.6208 H   0  0  0  0  0  0  0  0  0  0  0  0
   -3.9751    9.4047   -2.1538 H   0  0  0  0  0  0  0  0  0  0  0  0
   -6.0357   10.7304   -2.3718 H   0  0  0  0  0  0  0  0  0  0  0  0
   -7.9905   10.2128   -0.9703 H   0  0  0  0  0  0  0  0  0  0  0  0
   -5.8329    7.0141    0.8657 H   0  0  0  0  0  0  0  0  0  0  0  0
   -8.1309    8.7701    1.6520 H   0  0  0  0  0  0  0  0  0  0  0  0
  1  2  1  0  0  0  0
  2  3  2  0  0  0  0
  3 12  1  0  0  0  0
  3  4  1  0  0  0  0
  4  5  2  0  0  0  0
  4 14  1  0  0  0  0
  5  6  1  0  0  0  0
  5 24  1  0  0  0  0
  6 11  2  0  0  0  0
  6  7  1  0  0  0  0
  7  8  2  0  0  0  0
  7 25  1  0  0  0  0
  8  9  1  0  0  0  0
  8 26  1  0  0  0  0
  9 10  2  0  0  0  0
  9 27  1  0  0  0  0
 10 11  1  0  0  0  0
 10 13  1  0  0  0  0
 11 12  1  0  0  0  0
 13 28  1  0  0  0  0
 14 15  2  0  0  0  0
 14 16  1  0  0  0  0
 16 17  1  0  0  0  0
 16 29  1  0  0  0  0
 17 22  2  0  0  0  0
 17 18  1  0  0  0  0
 18 19  2  0  0  0  0
 18 30  1  0  0  0  0
 19 20  1  0  0  0  0
 19 31  1  0  0  0  0
 20 21  2  0  0  0  0
 20 32  1  0  0  0  0
 21 22  1  0  0  0  0
 21 23  1  0  0  0  0
 22 33  1  0  0  0  0
 23 34  1  0  0  0  0
M  END
$$$$
ZINC03834087
  -OEChem-08230709403D

 41 44  0     0  0  0  0  0  0999 V2000
    0.0686    1.0902    0.1115 C   0  0  0  0  0  0  0  0  0  0  0  0
   -0.4260    1.5832    1.3993 N   0  0  0  0  0  0  0  0  0  0  0  0
   -0.5384    2.9341    1.6114 C   0  0  0  0  0  0  0  0  0  0  0  0
   -1.0178    3.4257    2.8449 C   0  0  0  0  0  0  0  0  0  0  0  0
   -1.3765    2.5288    3.8770 C   0  0  0  0  0  0  0  0  0  0  0  0
   -1.2561    1.1827    3.6580 C   0  0  0  0  0  0  0  0  0  0  0  0
   -0.7605    0.7059    2.3650 C   0  0  0  0  0  0  0  0  0  0  0  0
   -0.6507   -0.4901    2.1617 O   0  0  0  0  0  0  0  0  0  0  0  0
   -1.6234    0.2169    4.7199 C   0  0  0  0  0  0  0  0  0  0  0  0
   -0.6653   -0.2112    5.6396 C   0  0  0  0  0  0  0  0  0  0  0  0
   -1.0152   -1.1087    6.6294 C   0  0  0  0  0  0  0  0  0  0  0  0
   -2.3098   -1.5900    6.7046 C   0  0  0  0  0  0  0  0  0  0  0  0
   -3.2632   -1.1733    5.7930 C   0  0  0  0  0  0  0  0  0  0  0  0
   -2.9275   -0.2729    4.8010 C   0  0  0  0  0  0  0  0  0  0  0  0
   -4.1251    0.2479    3.6573 Cl  0  0  0  0  0  0  0  0  0  0  0  0
    0.9615    0.3870    5.5433 Cl  0  0  0  0  0  0  0  0  0  0  0  0
   -1.1228    4.8138    3.0190 C   0  0  0  0  0  0  0  0  0  0  0  0
   -0.7737    5.6039    2.0209 N   0  0  0  0  0  0  0  0  0  0  0  0
   -0.3311    5.1055    0.8718 C   0  0  0  0  0  0  0  0  0  0  0  0
   -0.2148    3.8034    0.6606 N   0  0  0  0  0  0  0  0  0  0  0  0
    0.0213    5.9778   -0.1401 N   0  0  0  0  0  0  0  0  0  0  0  0
   -0.1990    7.3506    0.0117 C   0  0  0  0  0  0  0  0  0  0  0  0
   -1.3050    7.8036    0.7194 C   0  0  0  0  0  0  0  0  0  0  0  0
   -1.5173    9.1597    0.8722 C   0  0  0  0  0  0  0  0  0  0  0  0
   -0.6353   10.0669    0.3118 C   0  0  0  0  0  0  0  0  0  0  0  0
    0.4643    9.6183   -0.3986 C   0  0  0  0  0  0  0  0  0  0  0  0
    0.6846    8.2634   -0.5497 C   0  0  0  0  0  0  0  0  0  0  0  0
   -0.9085   11.7708    0.5007 Cl  0  0  0  0  0  0  0  0  0  0  0  0
    0.0952    0.0006    0.1255 H   0  0  0  0  0  0  0  0  0  0  0  0
    1.0730    1.4758   -0.0638 H   0  0  0  0  0  0  0  0  0  0  0  0
   -0.5942    1.4272   -0.6855 H   0  0  0  0  0  0  0  0  0  0  0  0
   -1.7404    2.8998    4.8237 H   0  0  0  0  0  0  0  0  0  0  0  0
   -0.2755   -1.4382    7.3440 H   0  0  0  0  0  0  0  0  0  0  0  0
   -2.5774   -2.2946    7.4782 H   0  0  0  0  0  0  0  0  0  0  0  0
   -4.2722   -1.5532    5.8570 H   0  0  0  0  0  0  0  0  0  0  0  0
   -1.4813    5.2273    3.9501 H   0  0  0  0  0  0  0  0  0  0  0  0
    0.4215    5.6382   -0.9558 H   0  0  0  0  0  0  0  0  0  0  0  0
   -1.9958    7.0961    1.1535 H   0  0  0  0  0  0  0  0  0  0  0  0
   -2.3745    9.5125    1.4265 H   0  0  0  0  0  0  0  0  0  0  0  0
    1.1511   10.3285   -0.8350 H   0  0  0  0  0  0  0  0  0  0  0  0
    1.5433    7.9138   -1.1036 H   0  0  0  0  0  0  0  0  0  0  0  0
  1  2  1  0  0  0  0
  1 29  1  0  0  0  0
  1 30  1  0  0  0  0
  1 31  1  0  0  0  0
  2  7  1  0  0  0  0
  2  3  1  0  0  0  0
  3 20  2  0  0  0  0
  3  4  1  0  0  0  0
  4  5  1  0  0  0  0
  4 17  2  0  0  0  0
  5  6  2  0  0  0  0
  5 32  1  0  0  0  0
  6  7  1  0  0  0  0
  6  9  1  0  0  0  0
  7  8  2  0  0  0  0
  9 14  2  0  0  0  0
  9 10  1  0  0  0  0
 10 11  2  0  0  0  0
 10 16  1  0  0  0  0
 11 12  1  0  0  0  0
 11 33  1  0  0  0  0
 12 13  2  0  0  0  0
 12 34  1  0  0  0  0
 13 14  1  0  0  0  0
 13 35  1  0  0  0  0
 14 15  1  0  0  0  0
 17 18  1  0  0  0  0
 17 36  1  0  0  0  0
 18 19  2  0  0  0  0
 19 20  1  0  0  0  0
 19 21  1  0  0  0  0
 21 22  1  0  0  0  0
 21 37  1  0  0  0  0
 22 27  2  0  0  0  0
 22 23  1  0  0  0  0
 23 24  2  0  0  0  0
 23 38  1  0  0  0  0
 24 25  1  0  0  0  0
 24 39  1  0  0  0  0
 25 26  2  0  0  0  0
 25 28  1  0  0  0  0
 26 27  1  0  0  0  0
 26 40  1  0  0  0  0
 27 41  1  0  0  0  0
M  END
$$$$
ZINC03834088
  -OEChem-08230709403D

 41 44  0     0  0  0  0  0  0999 V2000
    4.0416   -3.4413   -3.8319 C   0  0  0  0  0  0  0  0  0  0  0  0
    3.4105   -4.3812   -3.0386 C   0  0  0  0  0  0  0  0  0  0  0  0
    2.1081   -4.1736   -2.6243 C   0  0  0  0  0  0  0  0  0  0  0  0
    1.4368   -3.0261   -3.0034 C   0  0  0  0  0  0  0  0  0  0  0  0
    2.0662   -2.0888   -3.8010 C   0  0  0  0  0  0  0  0  0  0  0  0
    3.3703   -2.2939   -4.2109 C   0  0  0  0  0  0  0  0  0  0  0  0
    0.0169   -2.8000   -2.5522 C   0  0  0  0  0  0  0  0  0  0  0  0
    0.0187   -2.0828   -1.2748 N   0  0  0  0  0  0  0  0  0  0  0  0
    0.0400   -2.7897   -0.0991 C   0  0  0  0  0  0  0  0  0  0  0  0
    0.0426   -2.1140    1.1403 C   0  0  0  0  0  0  0  0  0  0  0  0
    0.0285   -0.7009    1.1802 C   0  0  0  0  0  0  0  0  0  0  0  0
    0.0021   -0.0041    0.0020 C   0  0  0  0  0  0  0  0  0  0  0  0
    0.0000   -0.7360   -1.2665 C   0  0  0  0  0  0  0  0  0  0  0  0
   -0.0191   -0.1237   -2.3194 O   0  0  0  0  0  0  0  0  0  0  0  0
   -0.0180    1.4774    0.0102 C   0  0  0  0  0  0  0  0  0  0  0  0
   -1.2341    2.1616    0.0196 C   0  0  0  0  0  0  0  0  0  0  0  0
   -1.2458    3.5427    0.0326 C   0  0  0  0  0  0  0  0  0  0  0  0
   -0.0556    4.2475    0.0255 C   0  0  0  0  0  0  0  0  0  0  0  0
    1.1533    3.5753    0.0103 C   0  0  0  0  0  0  0  0  0  0  0  0
    1.1790    2.1944    0.0026 C   0  0  0  0  0  0  0  0  0  0  0  0
    2.6972    1.3528   -0.0171 Cl  0  0  0  0  0  0  0  0  0  0  0  0
   -2.7289    1.2789    0.0218 Cl  0  0  0  0  0  0  0  0  0  0  0  0
    0.0651   -2.8744    2.3190 C   0  0  0  0  0  0  0  0  0  0  0  0
    0.0829   -4.1906    2.2215 N   0  0  0  0  0  0  0  0  0  0  0  0
    0.0799   -4.7926    1.0373 C   0  0  0  0  0  0  0  0  0  0  0  0
    0.0590   -4.1179   -0.1018 N   0  0  0  0  0  0  0  0  0  0  0  0
    0.0987   -6.1724    0.9927 N   0  0  0  0  0  0  0  0  0  0  0  0
    5.0590   -3.6037   -4.1558 H   0  0  0  0  0  0  0  0  0  0  0  0
    3.9348   -5.2778   -2.7427 H   0  0  0  0  0  0  0  0  0  0  0  0
    1.6149   -4.9080   -2.0048 H   0  0  0  0  0  0  0  0  0  0  0  0
    1.5402   -1.1944   -4.1008 H   0  0  0  0  0  0  0  0  0  0  0  0
    3.8633   -1.5598   -4.8311 H   0  0  0  0  0  0  0  0  0  0  0  0
   -0.4825   -3.7610   -2.4285 H   0  0  0  0  0  0  0  0  0  0  0  0
   -0.5122   -2.2092   -3.2999 H   0  0  0  0  0  0  0  0  0  0  0  0
    0.0345   -0.1791    2.1257 H   0  0  0  0  0  0  0  0  0  0  0  0
   -2.1863    4.0735    0.0445 H   0  0  0  0  0  0  0  0  0  0  0  0
   -0.0702    5.3274    0.0315 H   0  0  0  0  0  0  0  0  0  0  0  0
    2.0790    4.1315    0.0048 H   0  0  0  0  0  0  0  0  0  0  0  0
    0.0674   -2.3930    3.2858 H   0  0  0  0  0  0  0  0  0  0  0  0
    0.1139   -6.6841    1.8165 H   0  0  0  0  0  0  0  0  0  0  0  0
    0.0968   -6.6301    0.1374 H   0  0  0  0  0  0  0  0  0  0  0  0
  1  6  2  0  0  0  0
  1  2  1  0  0  0  0
  1 28  1  0  0  0  0
  2  3  2  0  0  0  0
  2 29  1  0  0  0  0
  3  4  1  0  0  0  0
  3 30  1  0  0  0  0
  4  5  2  0  0  0  0
  4  7  1  0  0  0  0
  5  6  1  0  0  0  0
  5 31  1  0  0  0  0
  6 32  1  0  0  0  0
  7  8  1  0  0  0  0
  7 33  1  0  0  0  0
  7 34  1  0  0  0  0
  8 13  1  0  0  0  0
  8  9  1  0  0  0  0
  9 26  2  0  0  0  0
  9 10  1  0  0  0  0
 10 11  1  0  0  0  0
 10 23  2  0  0  0  0
 11 12  2  0  0  0  0
 11 35  1  0  0  0  0
 12 13  1  0  0  0  0
 12 15  1  0  0  0  0
 13 14  2  0  0  0  0
 15 20  2  0  0  0  0
 15 16  1  0  0  0  0
 16 17  2  0  0  0  0
 16 22  1  0  0  0  0
 17 18  1  0  0  0  0
 17 36  1  0  0  0  0
 18 19  2  0  0  0  0
 18 37  1  0  0  0  0
 19 20  1  0  0  0  0
 19 38  1  0  0  0  0
 20 21  1  0  0  0  0
 23 24  1  0  0  0  0
 23 39  1  0  0  0  0
 24 25  2  0  0  0  0
 25 26  1  0  0  0  0
 25 27  1  0  0  0  0
 27 40  1  0  0  0  0
 27 41  1  0  0  0  0
M  END
$$$$
ZINC03834089
  -OEChem-08230709403D

 31 33  0     0  0  0  0  0  0999 V2000
   -1.2609   -0.7464    0.0101 C   0  0  0  0  0  0  0  0  0  0  0  0
    0.0021   -0.0041    0.0020 N   0  0  0  0  0  0  0  0  0  0  0  0
   -0.0165    1.3678    0.0096 C   0  0  0  0  0  0  0  0  0  0  0  0
    1.1915    2.0982    0.0020 C   0  0  0  0  0  0  0  0  0  0  0  0
    2.4322    1.4209   -0.0130 C   0  0  0  0  0  0  0  0  0  0  0  0
    2.4409    0.0518   -0.0200 C   0  0  0  0  0  0  0  0  0  0  0  0
    1.1697   -0.6753   -0.0123 C   0  0  0  0  0  0  0  0  0  0  0  0
    1.1684   -1.8934   -0.0184 O   0  0  0  0  0  0  0  0  0  0  0  0
    3.7248   -0.6874   -0.0357 C   0  0  0  0  0  0  0  0  0  0  0  0
    4.3181   -1.0356   -1.2497 C   0  0  0  0  0  0  0  0  0  0  0  0
    5.5177   -1.7201   -1.2573 C   0  0  0  0  0  0  0  0  0  0  0  0
    6.1256   -2.0697   -0.0650 C   0  0  0  0  0  0  0  0  0  0  0  0
    5.5398   -1.7326    1.1419 C   0  0  0  0  0  0  0  0  0  0  0  0
    4.3430   -1.0435    1.1636 C   0  0  0  0  0  0  0  0  0  0  0  0
    3.6092   -0.6219    2.6793 Cl  0  0  0  0  0  0  0  0  0  0  0  0
    3.5533   -0.6040   -2.7472 Cl  0  0  0  0  0  0  0  0  0  0  0  0
    1.1283    3.4996    0.0101 C   0  0  0  0  0  0  0  0  0  0  0  0
   -0.0579    4.0785    0.0245 N   0  0  0  0  0  0  0  0  0  0  0  0
   -1.1744    3.3587    0.0314 C   0  0  0  0  0  0  0  0  0  0  0  0
   -1.1653    2.0347    0.0186 N   0  0  0  0  0  0  0  0  0  0  0  0
   -2.3888    4.0153    0.0465 N   0  0  0  0  0  0  0  0  0  0  0  0
   -1.5840   -0.9249   -1.0155 H   0  0  0  0  0  0  0  0  0  0  0  0
   -1.1184   -1.7005    0.5174 H   0  0  0  0  0  0  0  0  0  0  0  0
   -2.0201   -0.1660    0.5343 H   0  0  0  0  0  0  0  0  0  0  0  0
    3.3593    1.9750   -0.0181 H   0  0  0  0  0  0  0  0  0  0  0  0
    5.9803   -1.9862   -2.1963 H   0  0  0  0  0  0  0  0  0  0  0  0
    7.0615   -2.6085   -0.0764 H   0  0  0  0  0  0  0  0  0  0  0  0
    6.0192   -2.0091    2.0694 H   0  0  0  0  0  0  0  0  0  0  0  0
    2.0311    4.0923    0.0043 H   0  0  0  0  0  0  0  0  0  0  0  0
   -2.4159    4.9849    0.0520 H   0  0  0  0  0  0  0  0  0  0  0  0
   -3.2149    3.5070    0.0517 H   0  0  0  0  0  0  0  0  0  0  0  0
  1  2  1  0  0  0  0
  1 22  1  0  0  0  0
  1 23  1  0  0  0  0
  1 24  1  0  0  0  0
  2  7  1  0  0  0  0
  2  3  1  0  0  0  0
  3 20  2  0  0  0  0
  3  4  1  0  0  0  0
  4  5  1  0  0  0  0
  4 17  2  0  0  0  0
  5  6  2  0  0  0  0
  5 25  1  0  0  0  0
  6  7  1  0  0  0  0
  6  9  1  0  0  0  0
  7  8  2  0  0  0  0
  9 14  2  0  0  0  0
  9 10  1  0  0  0  0
 10 11  2  0  0  0  0
 10 16  1  0  0  0  0
 11 12  1  0  0  0  0
 11 26  1  0  0  0  0
 12 13  2  0  0  0  0
 12 27  1  0  0  0  0
 13 14  1  0  0  0  0
 13 28  1  0  0  0  0
 14 15  1  0  0  0  0
 17 18  1  0  0  0  0
 17 29  1  0  0  0  0
 18 19  2  0  0  0  0
 19 20  1  0  0  0  0
 19 21  1  0  0  0  0
 21 30  1  0  0  0  0
 21 31  1  0  0  0  0
M  END
$$$$
ZINC03834090
  -OEChem-08230709403D

 38 40  0     0  0  0  0  0  0999 V2000
   -2.2664    2.6406    5.7207 C   0  0  0  0  0  0  0  0  0  0  0  0
   -1.0652    1.8152    5.8687 N   0  0  0  0  0  0  0  0  0  0  0  0
   -0.4094    1.3640    4.7512 C   0  0  0  0  0  0  0  0  0  0  0  0
    0.7497    0.5679    4.8763 C   0  0  0  0  0  0  0  0  0  0  0  0
    1.2453    0.2291    6.1562 C   0  0  0  0  0  0  0  0  0  0  0  0
    0.5843    0.6839    7.2655 C   0  0  0  0  0  0  0  0  0  0  0  0
   -0.6156    1.5073    7.1005 C   0  0  0  0  0  0  0  0  0  0  0  0
   -1.2098    1.9161    8.0821 O   0  0  0  0  0  0  0  0  0  0  0  0
    1.0781    0.3458    8.6209 C   0  0  0  0  0  0  0  0  0  0  0  0
    0.6245   -0.8061    9.2648 C   0  0  0  0  0  0  0  0  0  0  0  0
    1.0925   -1.1181   10.5262 C   0  0  0  0  0  0  0  0  0  0  0  0
    2.0012   -0.2863   11.1554 C   0  0  0  0  0  0  0  0  0  0  0  0
    2.4509    0.8598   10.5247 C   0  0  0  0  0  0  0  0  0  0  0  0
    1.9945    1.1808    9.2613 C   0  0  0  0  0  0  0  0  0  0  0  0
    2.5591    2.6202    8.4720 Cl  0  0  0  0  0  0  0  0  0  0  0  0
   -0.5209   -1.8478    8.4796 Cl  0  0  0  0  0  0  0  0  0  0  0  0
    1.3899    0.1267    3.7087 C   0  0  0  0  0  0  0  0  0  0  0  0
    0.8797    0.4693    2.5405 N   0  0  0  0  0  0  0  0  0  0  0  0
   -0.2103    1.2245    2.4609 C   0  0  0  0  0  0  0  0  0  0  0  0
   -0.8488    1.6644    3.5342 N   0  0  0  0  0  0  0  0  0  0  0  0
   -0.6984    1.5583    1.2133 N   0  0  0  0  0  0  0  0  0  0  0  0
   -0.0127    1.0858    0.0080 C   0  0  0  0  0  0  0  0  0  0  0  0
   -0.7527    1.5927   -1.2315 C   0  0  0  0  0  0  0  0  0  0  0  0
   -0.6718    3.0184   -1.2848 O   0  0  0  0  0  0  0  0  0  0  0  0
   -3.1464    1.9984    5.6843 H   0  0  0  0  0  0  0  0  0  0  0  0
   -2.3472    3.3201    6.5692 H   0  0  0  0  0  0  0  0  0  0  0  0
   -2.1993    3.2176    4.7983 H   0  0  0  0  0  0  0  0  0  0  0  0
    2.1320   -0.3790    6.2574 H   0  0  0  0  0  0  0  0  0  0  0  0
    0.7451   -2.0112   11.0242 H   0  0  0  0  0  0  0  0  0  0  0  0
    2.3610   -0.5326   12.1435 H   0  0  0  0  0  0  0  0  0  0  0  0
    3.1601    1.5053   11.0215 H   0  0  0  0  0  0  0  0  0  0  0  0
    2.2790   -0.4839    3.7644 H   0  0  0  0  0  0  0  0  0  0  0  0
   -1.4954    2.1056    1.1349 H   0  0  0  0  0  0  0  0  0  0  0  0
    0.0021   -0.0041    0.0020 H   0  0  0  0  0  0  0  0  0  0  0  0
    1.0099    1.4631    0.0003 H   0  0  0  0  0  0  0  0  0  0  0  0
   -0.2958    1.1691   -2.1259 H   0  0  0  0  0  0  0  0  0  0  0  0
   -1.7985    1.2898   -1.1795 H   0  0  0  0  0  0  0  0  0  0  0  0
   -1.1204    3.4096   -2.0469 H   0  0  0  0  0  0  0  0  0  0  0  0
  1  2  1  0  0  0  0
  1 25  1  0  0  0  0
  1 26  1  0  0  0  0
  1 27  1  0  0  0  0
  2  7  1  0  0  0  0
  2  3  1  0  0  0  0
  3 20  2  0  0  0  0
  3  4  1  0  0  0  0
  4  5  1  0  0  0  0
  4 17  2  0  0  0  0
  5  6  2  0  0  0  0
  5 28  1  0  0  0  0
  6  7  1  0  0  0  0
  6  9  1  0  0  0  0
  7  8  2  0  0  0  0
  9 14  2  0  0  0  0
  9 10  1  0  0  0  0
 10 11  2  0  0  0  0
 10 16  1  0  0  0  0
 11 12  1  0  0  0  0
 11 29  1  0  0  0  0
 12 13  2  0  0  0  0
 12 30  1  0  0  0  0
 13 14  1  0  0  0  0
 13 31  1  0  0  0  0
 14 15  1  0  0  0  0
 17 18  1  0  0  0  0
 17 32  1  0  0  0  0
 18 19  2  0  0  0  0
 19 20  1  0  0  0  0
 19 21  1  0  0  0  0
 21 22  1  0  0  0  0
 21 33  1  0  0  0  0
 22 23  1  0  0  0  0
 22 34  1  0  0  0  0
 22 35  1  0  0  0  0
 23 24  1  0  0  0  0
 23 36  1  0  0  0  0
 23 37  1  0  0  0  0
 24 38  1  0  0  0  0
M  END
$$$$
ZINC03834091
  -OEChem-08230709403D

 37 39  0     0  0  0  0  0  0999 V2000
    1.2685    2.0148    0.0008 C   0  0  0  0  0  0  0  0  0  0  0  0
   -0.0161    1.3381    0.0094 O   0  0  0  0  0  0  0  0  0  0  0  0
    0.0021   -0.0041    0.0020 C   0  0  0  0  0  0  0  0  0  0  0  0
    1.0565   -0.5939   -0.0112 O   0  0  0  0  0  0  0  0  0  0  0  0
   -1.2926   -0.7753    0.0102 C   0  0  0  0  0  0  0  0  0  0  0  0
   -1.0054   -2.2118   -0.0002 N   0  0  0  0  0  0  0  0  0  0  0  0
   -0.8892   -2.8723   -1.1971 C   0  0  0  0  0  0  0  0  0  0  0  0
   -0.6071   -4.2552   -1.2249 C   0  0  0  0  0  0  0  0  0  0  0  0
   -0.4531   -4.9742   -0.0175 C   0  0  0  0  0  0  0  0  0  0  0  0
   -0.5763   -4.3078    1.1720 C   0  0  0  0  0  0  0  0  0  0  0  0
   -0.8636   -2.8717    1.1653 C   0  0  0  0  0  0  0  0  0  0  0  0
   -0.9744   -2.2710    2.2192 O   0  0  0  0  0  0  0  0  0  0  0  0
   -0.4209   -5.0330    2.4546 C   0  0  0  0  0  0  0  0  0  0  0  0
   -1.5316   -5.6076    3.0737 C   0  0  0  0  0  0  0  0  0  0  0  0
   -1.3790   -6.2868    4.2667 C   0  0  0  0  0  0  0  0  0  0  0  0
   -0.1304   -6.3885    4.8533 C   0  0  0  0  0  0  0  0  0  0  0  0
    0.9737   -5.8163    4.2476 C   0  0  0  0  0  0  0  0  0  0  0  0
    0.8358   -5.1393    3.0517 C   0  0  0  0  0  0  0  0  0  0  0  0
    2.2228   -4.4218    2.2933 Cl  0  0  0  0  0  0  0  0  0  0  0  0
   -3.1006   -5.4748    2.3429 Cl  0  0  0  0  0  0  0  0  0  0  0  0
   -0.4909   -4.8915   -2.4698 C   0  0  0  0  0  0  0  0  0  0  0  0
   -0.6600   -4.1735   -3.5645 N   0  0  0  0  0  0  0  0  0  0  0  0
   -0.9198   -2.8723   -3.5001 C   0  0  0  0  0  0  0  0  0  0  0  0
   -1.0336   -2.2273   -2.3493 N   0  0  0  0  0  0  0  0  0  0  0  0
   -1.0766   -2.1665   -4.6763 N   0  0  0  0  0  0  0  0  0  0  0  0
    1.8379    1.7248    0.8838 H   0  0  0  0  0  0  0  0  0  0  0  0
    1.8209    1.7343   -0.8960 H   0  0  0  0  0  0  0  0  0  0  0  0
    1.1110    3.0934    0.0081 H   0  0  0  0  0  0  0  0  0  0  0  0
   -1.8592   -0.5245    0.9070 H   0  0  0  0  0  0  0  0  0  0  0  0
   -1.8762   -0.5150   -0.8728 H   0  0  0  0  0  0  0  0  0  0  0  0
   -0.2411   -6.0331   -0.0332 H   0  0  0  0  0  0  0  0  0  0  0  0
   -2.2370   -6.7361    4.7444 H   0  0  0  0  0  0  0  0  0  0  0  0
   -0.0172   -6.9168    5.7884 H   0  0  0  0  0  0  0  0  0  0  0  0
    1.9458   -5.8993    4.7108 H   0  0  0  0  0  0  0  0  0  0  0  0
   -0.2800   -5.9489   -2.5310 H   0  0  0  0  0  0  0  0  0  0  0  0
   -1.2665   -1.2156   -4.6497 H   0  0  0  0  0  0  0  0  0  0  0  0
   -0.9969   -2.6215   -5.5293 H   0  0  0  0  0  0  0  0  0  0  0  0
  1  2  1  0  0  0  0
  1 26  1  0  0  0  0
  1 27  1  0  0  0  0
  1 28  1  0  0  0  0
  2  3  1  0  0  0  0
  3  4  2  0  0  0  0
  3  5  1  0  0  0  0
  5  6  1  0  0  0  0
  5 29  1  0  0  0  0
  5 30  1  0  0  0  0
  6 11  1  0  0  0  0
  6  7  1  0  0  0  0
  7 24  2  0  0  0  0
  7  8  1  0  0  0  0
  8  9  1  0  0  0  0
  8 21  2  0  0  0  0
  9 10  2  0  0  0  0
  9 31  1  0  0  0  0
 10 11  1  0  0  0  0
 10 13  1  0  0  0  0
 11 12  2  0  0  0  0
 13 18  2  0  0  0  0
 13 14  1  0  0  0  0
 14 15  2  0  0  0  0
 14 20  1  0  0  0  0
 15 16  1  0  0  0  0
 15 32  1  0  0  0  0
 16 17  2  0  0  0  0
 16 33  1  0  0  0  0
 17 18  1  0  0  0  0
 17 34  1  0  0  0  0
 18 19  1  0  0  0  0
 21 22  1  0  0  0  0
 21 35  1  0  0  0  0
 22 23  2  0  0  0  0
 23 24  1  0  0  0  0
 23 25  1  0  0  0  0
 25 36  1  0  0  0  0
 25 37  1  0  0  0  0
M  END
$$$$
ZINC03834094
  -OEChem-08230709403D

 48 50  0     0  0  0  0  0  0999 V2000
    4.1728    5.0377    2.2645 C   0  0  0  0  0  0  0  0  0  0  0  0
    5.0940    4.9744    1.0735 C   0  0  0  0  0  0  0  0  0  0  0  0
    6.2635    5.7075    1.0642 C   0  0  0  0  0  0  0  0  0  0  0  0
    7.1069    5.6552   -0.0308 C   0  0  0  0  0  0  0  0  0  0  0  0
    6.7869    4.8645   -1.1200 C   0  0  0  0  0  0  0  0  0  0  0  0
    5.6233    4.1229   -1.1195 C   0  0  0  0  0  0  0  0  0  0  0  0
    4.7694    4.1716   -0.0185 C   0  0  0  0  0  0  0  0  0  0  0  0
    3.5175    3.3770   -0.0119 C   0  0  0  0  0  0  0  0  0  0  0  0
    3.5690    1.9919   -0.0207 C   0  0  0  0  0  0  0  0  0  0  0  0
    2.3540    1.2880   -0.0135 C   0  0  0  0  0  0  0  0  0  0  0  0
    2.3094   -0.1168   -0.0211 C   0  0  0  0  0  0  0  0  0  0  0  0
    1.1319   -0.7082   -0.0130 N   0  0  0  0  0  0  0  0  0  0  0  0
    0.0021   -0.0041    0.0020 C   0  0  0  0  0  0  0  0  0  0  0  0
   -0.0158    1.3152    0.0093 N   0  0  0  0  0  0  0  0  0  0  0  0
    1.1302    2.0077    0.0020 C   0  0  0  0  0  0  0  0  0  0  0  0
    1.1373    3.3417    0.0104 N   0  0  0  0  0  0  0  0  0  0  0  0
    2.2642    4.0245    0.0038 C   0  0  0  0  0  0  0  0  0  0  0  0
    2.2172    5.4110    0.0120 N   0  0  0  0  0  0  0  0  0  0  0  0
    1.0278    6.0448    0.0271 C   0  0  0  0  0  0  0  0  0  0  0  0
   -0.0037    5.4016    0.0334 O   0  0  0  0  0  0  0  0  0  0  0  0
    0.9822    7.3918    0.0351 N   0  0  0  0  0  0  0  0  0  0  0  0
   -0.3106    8.0808    0.0514 C   0  0  0  0  0  0  0  0  0  0  0  0
   -1.0878    7.6771    1.3060 C   0  0  0  0  0  0  0  0  0  0  0  0
   -0.0822    9.5936    0.0577 C   0  0  0  0  0  0  0  0  0  0  0  0
   -1.1119    7.6911   -1.1924 C   0  0  0  0  0  0  0  0  0  0  0  0
   -1.2015   -0.6830    0.0099 N   0  0  0  0  0  0  0  0  0  0  0  0
    4.4523    4.2656    2.9814 H   0  0  0  0  0  0  0  0  0  0  0  0
    4.2544    6.0173    2.7354 H   0  0  0  0  0  0  0  0  0  0  0  0
    3.1455    4.8758    1.9382 H   0  0  0  0  0  0  0  0  0  0  0  0
    6.5184    6.3265    1.9117 H   0  0  0  0  0  0  0  0  0  0  0  0
    8.0185    6.2343   -0.0357 H   0  0  0  0  0  0  0  0  0  0  0  0
    7.4490    4.8278   -1.9725 H   0  0  0  0  0  0  0  0  0  0  0  0
    5.3743    3.5062   -1.9705 H   0  0  0  0  0  0  0  0  0  0  0  0
    4.5145    1.4701   -0.0324 H   0  0  0  0  0  0  0  0  0  0  0  0
    3.2194   -0.6983   -0.0336 H   0  0  0  0  0  0  0  0  0  0  0  0
    3.0402    5.9242    0.0070 H   0  0  0  0  0  0  0  0  0  0  0  0
    1.8052    7.9050    0.0300 H   0  0  0  0  0  0  0  0  0  0  0  0
   -0.5170    7.9547    2.1921 H   0  0  0  0  0  0  0  0  0  0  0  0
   -2.0497    8.1897    1.3181 H   0  0  0  0  0  0  0  0  0  0  0  0
   -1.2506    6.5993    1.3015 H   0  0  0  0  0  0  0  0  0  0  0  0
    0.4715    9.8812   -0.8361 H   0  0  0  0  0  0  0  0  0  0  0  0
   -1.0441   10.1062    0.0699 H   0  0  0  0  0  0  0  0  0  0  0  0
    0.4887    9.8712    0.9438 H   0  0  0  0  0  0  0  0  0  0  0  0
   -1.2747    6.6134   -1.1968 H   0  0  0  0  0  0  0  0  0  0  0  0
   -2.0738    8.2038   -1.1802 H   0  0  0  0  0  0  0  0  0  0  0  0
   -0.5582    7.9787   -2.0861 H   0  0  0  0  0  0  0  0  0  0  0  0
   -2.0366   -0.1896    0.0205 H   0  0  0  0  0  0  0  0  0  0  0  0
   -1.2113   -1.6529    0.0048 H   0  0  0  0  0  0  0  0  0  0  0  0
  1  2  1  0  0  0  0
  1 27  1  0  0  0  0
  1 28  1  0  0  0  0
  1 29  1  0  0  0  0
  2  7  2  0  0  0  0
  2  3  1  0  0  0  0
  3  4  2  0  0  0  0
  3 30  1  0  0  0  0
  4  5  1  0  0  0  0
  4 31  1  0  0  0  0
  5  6  2  0  0  0  0
  5 32  1  0  0  0  0
  6  7  1  0  0  0  0
  6 33  1  0  0  0  0
  7  8  1  0  0  0  0
  8 17  2  0  0  0  0
  8  9  1  0  0  0  0
  9 10  2  0  0  0  0
  9 34  1  0  0  0  0
 10 15  1  0  0  0  0
 10 11  1  0  0  0  0
 11 12  2  0  0  0  0
 11 35  1  0  0  0  0
 12 13  1  0  0  0  0
 13 14  2  0  0  0  0
 13 26  1  0  0  0  0
 14 15  1  0  0  0  0
 15 16  2  0  0  0  0
 16 17  1  0  0  0  0
 17 18  1  0  0  0  0
 18 19  1  0  0  0  0
 18 36  1  0  0  0  0
 19 20  2  0  0  0  0
 19 21  1  0  0  0  0
 21 22  1  0  0  0  0
 21 37  1  0  0  0  0
 22 23  1  0  0  0  0
 22 24  1  0  0  0  0
 22 25  1  0  0  0  0
 23 38  1  0  0  0  0
 23 39  1  0  0  0  0
 23 40  1  0  0  0  0
 24 41  1  0  0  0  0
 24 42  1  0  0  0  0
 24 43  1  0  0  0  0
 25 44  1  0  0  0  0
 25 45  1  0  0  0  0
 25 46  1  0  0  0  0
 26 47  1  0  0  0  0
 26 48  1  0  0  0  0
M  END
$$$$
ZINC03834095
  -OEChem-08230709403D

 54 57  0     0  0  0  0  0  0999 V2000
   -0.0127    1.0858    0.0080 C   0  0  0  0  0  0  0  0  0  0  0  0
   -0.6984    1.5583    1.2133 N   0  0  0  0  0  0  0  0  0  0  0  0
    0.0218    1.7881    2.3583 C   0  0  0  0  0  0  0  0  0  0  0  0
   -0.6235    2.2439    3.5282 C   0  0  0  0  0  0  0  0  0  0  0  0
   -2.0194    2.4676    3.5294 C   0  0  0  0  0  0  0  0  0  0  0  0
   -2.7298    2.2356    2.3823 C   0  0  0  0  0  0  0  0  0  0  0  0
   -2.0286    1.7679    1.1846 C   0  0  0  0  0  0  0  0  0  0  0  0
   -2.6522    1.5637    0.1583 O   0  0  0  0  0  0  0  0  0  0  0  0
   -4.1939    2.4601    2.3515 C   0  0  0  0  0  0  0  0  0  0  0  0
   -5.0689    1.4224    2.6753 C   0  0  0  0  0  0  0  0  0  0  0  0
   -6.4326    1.6397    2.6493 C   0  0  0  0  0  0  0  0  0  0  0  0
   -6.9318    2.8795    2.2930 C   0  0  0  0  0  0  0  0  0  0  0  0
   -6.0700    3.9109    1.9658 C   0  0  0  0  0  0  0  0  0  0  0  0
   -4.7041    3.7084    1.9930 C   0  0  0  0  0  0  0  0  0  0  0  0
   -3.6242    5.0039    1.5815 Cl  0  0  0  0  0  0  0  0  0  0  0  0
   -4.4446   -0.1363    3.1163 Cl  0  0  0  0  0  0  0  0  0  0  0  0
    0.1494    2.4670    4.6774 C   0  0  0  0  0  0  0  0  0  0  0  0
    1.4487    2.2418    4.6184 N   0  0  0  0  0  0  0  0  0  0  0  0
    2.0222    1.8129    3.4995 C   0  0  0  0  0  0  0  0  0  0  0  0
    1.3346    1.5883    2.3904 N   0  0  0  0  0  0  0  0  0  0  0  0
    3.3853    1.5938    3.4927 N   0  0  0  0  0  0  0  0  0  0  0  0
    4.1719    1.8338    4.7051 C   0  0  0  0  0  0  0  0  0  0  0  0
    5.6431    1.5165    4.4297 C   0  0  0  0  0  0  0  0  0  0  0  0
    6.4645    1.7672    5.6959 C   0  0  0  0  0  0  0  0  0  0  0  0
    8.0679    0.0272    5.1772 C   0  0  0  0  0  0  0  0  0  0  0  0
    9.5398   -0.2361    4.8483 C   0  0  0  0  0  0  0  0  0  0  0  0
   10.3552    0.2363    5.9241 O   0  0  0  0  0  0  0  0  0  0  0  0
   10.1951    1.6307    6.1986 C   0  0  0  0  0  0  0  0  0  0  0  0
    8.7298    1.9129    6.5411 C   0  0  0  0  0  0  0  0  0  0  0  0
    0.0021   -0.0041    0.0020 H   0  0  0  0  0  0  0  0  0  0  0  0
    1.0099    1.4631    0.0003 H   0  0  0  0  0  0  0  0  0  0  0  0
   -0.5399    1.4469   -0.8751 H   0  0  0  0  0  0  0  0  0  0  0  0
   -2.5179    2.8160    4.4219 H   0  0  0  0  0  0  0  0  0  0  0  0
   -7.1108    0.8386    2.9036 H   0  0  0  0  0  0  0  0  0  0  0  0
   -7.9991    3.0429    2.2698 H   0  0  0  0  0  0  0  0  0  0  0  0
   -6.4662    4.8765    1.6881 H   0  0  0  0  0  0  0  0  0  0  0  0
   -0.3088    2.8160    5.5909 H   0  0  0  0  0  0  0  0  0  0  0  0
    3.8222    1.2809    2.6851 H   0  0  0  0  0  0  0  0  0  0  0  0
    4.0746    2.8785    5.0004 H   0  0  0  0  0  0  0  0  0  0  0  0
    3.8063    1.1937    5.5080 H   0  0  0  0  0  0  0  0  0  0  0  0
    5.7404    0.4718    4.1343 H   0  0  0  0  0  0  0  0  0  0  0  0
    6.0087    2.1566    3.6267 H   0  0  0  0  0  0  0  0  0  0  0  0
    6.3673    2.8119    5.9912 H   0  0  0  0  0  0  0  0  0  0  0  0
    6.0990    1.1271    6.4988 H   0  0  0  0  0  0  0  0  0  0  0  0
    7.7859   -0.5402    6.0641 H   0  0  0  0  0  0  0  0  0  0  0  0
    7.4465   -0.2791    4.3356 H   0  0  0  0  0  0  0  0  0  0  0  0
    9.8073    0.2887    3.9312 H   0  0  0  0  0  0  0  0  0  0  0  0
    9.6971   -1.3064    4.7152 H   0  0  0  0  0  0  0  0  0  0  0  0
   10.4817    2.2097    5.3207 H   0  0  0  0  0  0  0  0  0  0  0  0
   10.8264    1.9105    7.0420 H   0  0  0  0  0  0  0  0  0  0  0  0
    8.5917    2.9831    6.6952 H   0  0  0  0  0  0  0  0  0  0  0  0
    8.4585    1.3757    7.4498 H   0  0  0  0  0  0  0  0  0  0  0  0
    7.8859    1.4758    5.4094 N   0  3  0  0  0  0  0  0  0  0  0  0
    8.1679    1.9876    4.5651 H   0  0  0  0  0  0  0  0  0  0  0  0
  1  2  1  0  0  0  0
  1 30  1  0  0  0  0
  1 31  1  0  0  0  0
  1 32  1  0  0  0  0
  2  7  1  0  0  0  0
  2  3  1  0  0  0  0
  3 20  2  0  0  0  0
  3  4  1  0  0  0  0
  4  5  1  0  0  0  0
  4 17  2  0  0  0  0
  5  6  2  0  0  0  0
  5 33  1  0  0  0  0
  6  7  1  0  0  0  0
  6  9  1  0  0  0  0
  7  8  2  0  0  0  0
  9 14  2  0  0  0  0
  9 10  1  0  0  0  0
 10 11  2  0  0  0  0
 10 16  1  0  0  0  0
 11 12  1  0  0  0  0
 11 34  1  0  0  0  0
 12 13  2  0  0  0  0
 12 35  1  0  0  0  0
 13 14  1  0  0  0  0
 13 36  1  0  0  0  0
 14 15  1  0  0  0  0
 17 18  1  0  0  0  0
 17 37  1  0  0  0  0
 18 19  2  0  0  0  0
 19 20  1  0  0  0  0
 19 21  1  0  0  0  0
 21 22  1  0  0  0  0
 21 38  1  0  0  0  0
 22 23  1  0  0  0  0
 22 39  1  0  0  0  0
 22 40  1  0  0  0  0
 23 24  1  0  0  0  0
 23 41  1  0  0  0  0
 23 42  1  0  0  0  0
 24 43  1  0  0  0  0
 24 44  1  0  0  0  0
 24 53  1  0  0  0  0
 25 26  1  0  0  0  0
 25 45  1  0  0  0  0
 25 46  1  0  0  0  0
 25 53  1  0  0  0  0
 26 27  1  0  0  0  0
 26 47  1  0  0  0  0
 26 48  1  0  0  0  0
 27 28  1  0  0  0  0
 28 29  1  0  0  0  0
 28 49  1  0  0  0  0
 28 50  1  0  0  0  0
 29 51  1  0  0  0  0
 29 52  1  0  0  0  0
 29 53  1  0  0  0  0
 53 54  1  0  0  0  0
M  CHG  1  53   1
M  END
$$$$
ZINC03834096
  -OEChem-08230709403D

 46 48  0     0  0  0  0  0  0999 V2000
    2.3402    5.3184    3.7606 C   0  0  0  0  0  0  0  0  0  0  0  0
    1.0709    5.8373    3.0819 C   0  0  0  0  0  0  0  0  0  0  0  0
    1.0331    7.3643    3.1706 C   0  0  0  0  0  0  0  0  0  0  0  0
   -0.1574    5.2551    3.7841 C   0  0  0  0  0  0  0  0  0  0  0  0
    1.0681    5.4333    1.6873 O   0  0  0  0  0  0  0  0  0  0  0  0
    1.0991    4.1154    1.4346 C   0  0  0  0  0  0  0  0  0  0  0  0
    1.1277    3.3255    2.3485 O   0  0  0  0  0  0  0  0  0  0  0  0
    1.0982    3.6208    0.0110 C   0  0  0  0  0  0  0  0  0  0  0  0
    1.1353    2.1563    0.0028 N   0  0  0  0  0  0  0  0  0  0  0  0
    2.3442    1.5078   -0.0123 C   0  0  0  0  0  0  0  0  0  0  0  0
    2.3976    0.0971   -0.0204 C   0  0  0  0  0  0  0  0  0  0  0  0
    1.2037   -0.6599   -0.0130 C   0  0  0  0  0  0  0  0  0  0  0  0
    0.0021   -0.0041    0.0020 C   0  0  0  0  0  0  0  0  0  0  0  0
   -0.0178    1.4603    0.0101 C   0  0  0  0  0  0  0  0  0  0  0  0
   -1.0826    2.0518    0.0183 O   0  0  0  0  0  0  0  0  0  0  0  0
   -1.2669   -0.7688    0.0096 C   0  0  0  0  0  0  0  0  0  0  0  0
   -1.8811   -1.1191   -1.1934 C   0  0  0  0  0  0  0  0  0  0  0  0
   -3.0611   -1.8367   -1.1795 C   0  0  0  0  0  0  0  0  0  0  0  0
   -3.6396   -2.1990    0.0237 C   0  0  0  0  0  0  0  0  0  0  0  0
   -3.0388   -1.8500    1.2198 C   0  0  0  0  0  0  0  0  0  0  0  0
   -1.8559   -1.1370    1.2198 C   0  0  0  0  0  0  0  0  0  0  0  0
   -1.1039   -0.6995    2.7220 Cl  0  0  0  0  0  0  0  0  0  0  0  0
   -1.1601   -0.6597   -2.7043 Cl  0  0  0  0  0  0  0  0  0  0  0  0
    3.6539   -0.5268   -0.0352 C   0  0  0  0  0  0  0  0  0  0  0  0
    4.7353    0.2302   -0.0411 N   0  0  0  0  0  0  0  0  0  0  0  0
    4.6469    1.5556   -0.0332 C   0  0  0  0  0  0  0  0  0  0  0  0
    3.4843    2.1894   -0.0191 N   0  0  0  0  0  0  0  0  0  0  0  0
    5.8098    2.2997   -0.0394 N   0  0  0  0  0  0  0  0  0  0  0  0
    3.2153    5.7332    3.2603 H   0  0  0  0  0  0  0  0  0  0  0  0
    2.3424    5.6217    4.8075 H   0  0  0  0  0  0  0  0  0  0  0  0
    2.3672    4.2306    3.6974 H   0  0  0  0  0  0  0  0  0  0  0  0
    0.1288    7.7340    2.6871 H   0  0  0  0  0  0  0  0  0  0  0  0
    1.0352    7.6676    4.2175 H   0  0  0  0  0  0  0  0  0  0  0  0
    1.9081    7.7791    2.6703 H   0  0  0  0  0  0  0  0  0  0  0  0
   -0.1304    4.1672    3.7210 H   0  0  0  0  0  0  0  0  0  0  0  0
   -0.1552    5.5584    4.8311 H   0  0  0  0  0  0  0  0  0  0  0  0
   -1.0616    5.6248    3.3006 H   0  0  0  0  0  0  0  0  0  0  0  0
    1.9738    4.0094   -0.5091 H   0  0  0  0  0  0  0  0  0  0  0  0
    0.1945    3.9643   -0.4923 H   0  0  0  0  0  0  0  0  0  0  0  0
    1.2390   -1.7393   -0.0188 H   0  0  0  0  0  0  0  0  0  0  0  0
   -3.5352   -2.1123   -2.1099 H   0  0  0  0  0  0  0  0  0  0  0  0
   -4.5645   -2.7565    0.0292 H   0  0  0  0  0  0  0  0  0  0  0  0
   -3.4956   -2.1359    2.1558 H   0  0  0  0  0  0  0  0  0  0  0  0
    3.7347   -1.6038   -0.0414 H   0  0  0  0  0  0  0  0  0  0  0  0
    5.7657    3.2687   -0.0334 H   0  0  0  0  0  0  0  0  0  0  0  0
    6.6710    1.8535   -0.0497 H   0  0  0  0  0  0  0  0  0  0  0  0
  1  2  1  0  0  0  0
  1 29  1  0  0  0  0
  1 30  1  0  0  0  0
  1 31  1  0  0  0  0
  2  3  1  0  0  0  0
  2  4  1  0  0  0  0
  2  5  1  0  0  0  0
  3 32  1  0  0  0  0
  3 33  1  0  0  0  0
  3 34  1  0  0  0  0
  4 35  1  0  0  0  0
  4 36  1  0  0  0  0
  4 37  1  0  0  0  0
  5  6  1  0  0  0  0
  6  7  2  0  0  0  0
  6  8  1  0  0  0  0
  8  9  1  0  0  0  0
  8 38  1  0  0  0  0
  8 39  1  0  0  0  0
  9 14  1  0  0  0  0
  9 10  1  0  0  0  0
 10 27  2  0  0  0  0
 10 11  1  0  0  0  0
 11 12  1  0  0  0  0
 11 24  2  0  0  0  0
 12 13  2  0  0  0  0
 12 40  1  0  0  0  0
 13 14  1  0  0  0  0
 13 16  1  0  0  0  0
 14 15  2  0  0  0  0
 16 21  2  0  0  0  0
 16 17  1  0  0  0  0
 17 18  2  0  0  0  0
 17 23  1  0  0  0  0
 18 19  1  0  0  0  0
 18 41  1  0  0  0  0
 19 20  2  0  0  0  0
 19 42  1  0  0  0  0
 20 21  1  0  0  0  0
 20 43  1  0  0  0  0
 21 22  1  0  0  0  0
 24 25  1  0  0  0  0
 24 44  1  0  0  0  0
 25 26  2  0  0  0  0
 26 27  1  0  0  0  0
 26 28  1  0  0  0  0
 28 45  1  0  0  0  0
 28 46  1  0  0  0  0
M  END
$$$$
ZINC03834097
  -OEChem-08230709403D

 35 37  0     0  0  0  0  0  0999 V2000
    0.8629    3.2777    1.4322 H   0  0  0  0  0  0  0  0  0  0  0  0
    1.5185    2.9431    0.8004 N   0  0  0  0  0  0  0  0  0  0  0  0
    1.2152    1.9486    0.0095 C   0  0  0  0  0  0  0  0  0  0  0  0
    2.1943    1.4178   -0.9639 C   0  0  0  0  0  0  0  0  0  0  0  0
    2.0425    0.0971   -1.3644 C   0  0  0  0  0  0  0  0  0  0  0  0
    0.9517   -0.6384   -0.8438 C   0  0  0  0  0  0  0  0  0  0  0  0
    0.8719   -2.0307   -1.0456 C   0  0  0  0  0  0  0  0  0  0  0  0
   -0.1707   -2.7426   -0.4866 C   0  0  0  0  0  0  0  0  0  0  0  0
   -1.1425   -2.0896    0.2644 C   0  0  0  0  0  0  0  0  0  0  0  0
   -1.0854   -0.7150    0.4501 C   0  0  0  0  0  0  0  0  0  0  0  0
   -0.0539    0.0185   -0.1078 C   0  0  0  0  0  0  0  0  0  0  0  0
   -0.0108    1.3651    0.0512 O   0  0  0  0  0  0  0  0  0  0  0  0
   -2.1547   -2.8022    0.8202 O   0  0  0  0  0  0  0  0  0  0  0  0
    1.8141   -2.6680   -1.7847 O   0  0  0  0  0  0  0  0  0  0  0  0
    3.2835    2.2544   -1.4860 C   0  0  0  0  0  0  0  0  0  0  0  0
    4.0755    1.7926   -2.2861 O   0  0  0  0  0  0  0  0  0  0  0  0
    3.4055    3.5334   -1.0786 N   0  0  0  0  0  0  0  0  0  0  0  0
    4.5059    4.2967   -1.4880 C   0  0  0  0  0  0  0  0  0  0  0  0
    5.7405    3.6898   -1.6772 C   0  0  0  0  0  0  0  0  0  0  0  0
    6.8238    4.4422   -2.0860 C   0  0  0  0  0  0  0  0  0  0  0  0
    6.6816    5.8060   -2.2969 C   0  0  0  0  0  0  0  0  0  0  0  0
    5.4498    6.4138   -2.1030 C   0  0  0  0  0  0  0  0  0  0  0  0
    4.3643    5.6618   -1.6993 C   0  0  0  0  0  0  0  0  0  0  0  0
    7.7503    6.5473   -2.6936 O   0  0  0  0  0  0  0  0  0  0  0  0
    2.7381   -0.3565   -2.0549 H   0  0  0  0  0  0  0  0  0  0  0  0
   -0.2317   -3.8110   -0.6326 H   0  0  0  0  0  0  0  0  0  0  0  0
   -1.8476   -0.2175    1.0314 H   0  0  0  0  0  0  0  0  0  0  0  0
   -1.9641   -3.1273    1.7107 H   0  0  0  0  0  0  0  0  0  0  0  0
    2.5687   -2.9860   -1.2703 H   0  0  0  0  0  0  0  0  0  0  0  0
    2.7311    3.9251   -0.5019 H   0  0  0  0  0  0  0  0  0  0  0  0
    5.8525    2.6290   -1.5084 H   0  0  0  0  0  0  0  0  0  0  0  0
    7.7830    3.9696   -2.2376 H   0  0  0  0  0  0  0  0  0  0  0  0
    5.3399    7.4756   -2.2674 H   0  0  0  0  0  0  0  0  0  0  0  0
    3.4054    6.1352   -1.5483 H   0  0  0  0  0  0  0  0  0  0  0  0
    8.2675    6.9138   -1.9633 H   0  0  0  0  0  0  0  0  0  0  0  0
  1  2  1  0  0  0  0
  2  3  2  0  0  0  0
  3 12  1  0  0  0  0
  3  4  1  0  0  0  0
  4  5  2  0  0  0  0
  4 15  1  0  0  0  0
  5  6  1  0  0  0  0
  5 25  1  0  0  0  0
  6 11  2  0  0  0  0
  6  7  1  0  0  0  0
  7  8  2  0  0  0  0
  7 14  1  0  0  0  0
  8  9  1  0  0  0  0
  8 26  1  0  0  0  0
  9 10  2  0  0  0  0
  9 13  1  0  0  0  0
 10 11  1  0  0  0  0
 10 27  1  0  0  0  0
 11 12  1  0  0  0  0
 13 28  1  0  0  0  0
 14 29  1  0  0  0  0
 15 16  2  0  0  0  0
 15 17  1  0  0  0  0
 17 18  1  0  0  0  0
 17 30  1  0  0  0  0
 18 23  2  0  0  0  0
 18 19  1  0  0  0  0
 19 20  2  0  0  0  0
 19 31  1  0  0  0  0
 20 21  1  0  0  0  0
 20 32  1  0  0  0  0
 21 22  2  0  0  0  0
 21 24  1  0  0  0  0
 22 23  1  0  0  0  0
 22 33  1  0  0  0  0
 23 34  1  0  0  0  0
 24 35  1  0  0  0  0
M  END
$$$$
ZINC03834098
  -OEChem-08230709403D

 26 28  0     0  0  0  0  0  0999 V2000
    0.0418   -2.0841    1.2083 C   0  0  0  0  0  0  0  0  0  0  0  0
    0.0398   -2.7769   -0.0018 C   0  0  0  0  0  0  0  0  0  0  0  0
    0.0187   -2.0754   -1.2154 C   0  0  0  0  0  0  0  0  0  0  0  0
   -0.0058   -0.6842   -1.2009 C   0  0  0  0  0  0  0  0  0  0  0  0
    0.0021   -0.0041    0.0020 C   0  0  0  0  0  0  0  0  0  0  0  0
    0.0230   -0.7036    1.2088 C   0  0  0  0  0  0  0  0  0  0  0  0
    0.0245   -0.0244    2.3880 O   0  0  0  0  0  0  0  0  0  0  0  0
   -0.0164    1.3557    0.0095 O   0  0  0  0  0  0  0  0  0  0  0  0
    0.0215   -2.9955   -2.2517 N   0  0  0  0  0  0  0  0  0  0  0  0
    0.0092   -2.7693   -3.1948 H   0  0  0  0  0  0  0  0  0  0  0  0
    0.0437   -4.2858   -1.7457 C   0  0  0  0  0  0  0  0  0  0  0  0
    0.0560   -4.2111   -0.3456 C   0  0  0  0  0  0  0  0  0  0  0  0
    0.0786   -5.3776    0.4180 C   0  0  0  0  0  0  0  0  0  0  0  0
    0.0894   -6.6075   -0.2056 C   0  0  0  0  0  0  0  0  0  0  0  0
    0.0778   -6.6882   -1.5930 C   0  0  0  0  0  0  0  0  0  0  0  0
    0.0549   -5.5351   -2.3634 C   0  0  0  0  0  0  0  0  0  0  0  0
    0.0437   -5.6235   -3.7215 O   0  0  0  0  0  0  0  0  0  0  0  0
    0.0886   -7.9058   -2.1992 O   0  0  0  0  0  0  0  0  0  0  0  0
    0.0938   -5.2732    2.3061 Br  0  0  0  0  0  0  0  0  0  0  0  0
    0.0584   -2.6259    2.1425 H   0  0  0  0  0  0  0  0  0  0  0  0
   -0.0265   -0.1353   -2.1308 H   0  0  0  0  0  0  0  0  0  0  0  0
   -0.8583    0.1596    2.7370 H   0  0  0  0  0  0  0  0  0  0  0  0
    0.8616    1.7610    0.0033 H   0  0  0  0  0  0  0  0  0  0  0  0
    0.1072   -7.5109    0.3859 H   0  0  0  0  0  0  0  0  0  0  0  0
    0.9237   -5.6372   -4.1220 H   0  0  0  0  0  0  0  0  0  0  0  0
    0.9750   -8.2459   -2.3829 H   0  0  0  0  0  0  0  0  0  0  0  0
  1  6  2  0  0  0  0
  1  2  1  0  0  0  0
  1 20  1  0  0  0  0
  2 12  1  0  0  0  0
  2  3  2  0  0  0  0
  3  4  1  0  0  0  0
  3  9  1  0  0  0  0
  4  5  2  0  0  0  0
  4 21  1  0  0  0  0
  5  6  1  0  0  0  0
  5  8  1  0  0  0  0
  6  7  1  0  0  0  0
  7 22  1  0  0  0  0
  8 23  1  0  0  0  0
  9 10  1  0  0  0  0
  9 11  1  0  0  0  0
 11 16  2  0  0  0  0
 11 12  1  0  0  0  0
 12 13  2  0  0  0  0
 13 14  1  0  0  0  0
 13 19  1  0  0  0  0
 14 15  2  0  0  0  0
 14 24  1  0  0  0  0
 15 16  1  0  0  0  0
 15 18  1  0  0  0  0
 16 17  1  0  0  0  0
 17 25  1  0  0  0  0
 18 26  1  0  0  0  0
M  END
$$$$
ZINC03834101
  -OEChem-08230709403D

 35 37  0     0  0  0  0  0  0999 V2000
   -3.9403   -2.1874   -0.3463 H   0  0  0  0  0  0  0  0  0  0  0  0
   -3.9145   -1.2177   -0.3489 N   0  0  0  0  0  0  0  0  0  0  0  0
   -4.8676   -0.5374    0.2297 C   0  0  0  0  0  0  0  0  0  0  0  0
   -4.8548    0.9423    0.2416 C   0  0  0  0  0  0  0  0  0  0  0  0
   -6.0758    1.5883    0.3569 C   0  0  0  0  0  0  0  0  0  0  0  0
   -7.2447    0.7956    0.4912 C   0  0  0  0  0  0  0  0  0  0  0  0
   -8.5151    1.3872    0.4248 C   0  0  0  0  0  0  0  0  0  0  0  0
   -9.6340    0.6129    0.5232 C   0  0  0  0  0  0  0  0  0  0  0  0
   -9.5277   -0.7641    0.7026 C   0  0  0  0  0  0  0  0  0  0  0  0
   -8.2787   -1.3667    0.7976 C   0  0  0  0  0  0  0  0  0  0  0  0
   -7.1308   -0.5908    0.7073 C   0  0  0  0  0  0  0  0  0  0  0  0
   -5.9073   -1.1605    0.8482 O   0  0  0  0  0  0  0  0  0  0  0  0
   -8.1813   -2.7120    0.9784 O   0  0  0  0  0  0  0  0  0  0  0  0
  -10.6510   -1.5227    0.7847 O   0  0  0  0  0  0  0  0  0  0  0  0
   -3.5980    1.6971    0.1295 C   0  0  0  0  0  0  0  0  0  0  0  0
   -3.6162    2.9136    0.1369 O   0  0  0  0  0  0  0  0  0  0  0  0
   -2.4257    1.0413    0.0187 N   0  0  0  0  0  0  0  0  0  0  0  0
   -1.2227    1.7542    0.0225 C   0  0  0  0  0  0  0  0  0  0  0  0
   -0.1468    1.3074   -0.7349 C   0  0  0  0  0  0  0  0  0  0  0  0
    1.0433    2.0082   -0.7262 C   0  0  0  0  0  0  0  0  0  0  0  0
    1.1657    3.1582    0.0308 C   0  0  0  0  0  0  0  0  0  0  0  0
    0.0929    3.6120    0.7850 C   0  0  0  0  0  0  0  0  0  0  0  0
   -1.1033    2.9115    0.7789 C   0  0  0  0  0  0  0  0  0  0  0  0
    0.2148    4.7429    1.5287 O   0  0  0  0  0  0  0  0  0  0  0  0
   -6.1358    2.6666    0.3445 H   0  0  0  0  0  0  0  0  0  0  0  0
   -8.6073    2.4556    0.2963 H   0  0  0  0  0  0  0  0  0  0  0  0
  -10.6099    1.0714    0.4617 H   0  0  0  0  0  0  0  0  0  0  0  0
   -8.1430   -3.2178    0.1551 H   0  0  0  0  0  0  0  0  0  0  0  0
  -10.9640   -1.8556   -0.0676 H   0  0  0  0  0  0  0  0  0  0  0  0
   -2.4165    0.0749   -0.0637 H   0  0  0  0  0  0  0  0  0  0  0  0
   -0.2400    0.4093   -1.3275 H   0  0  0  0  0  0  0  0  0  0  0  0
    1.8798    1.6572   -1.3123 H   0  0  0  0  0  0  0  0  0  0  0  0
    2.0976    3.7040    0.0355 H   0  0  0  0  0  0  0  0  0  0  0  0
   -1.9392    3.2633    1.3653 H   0  0  0  0  0  0  0  0  0  0  0  0
    0.5285    4.5888    2.4303 H   0  0  0  0  0  0  0  0  0  0  0  0
  1  2  1  0  0  0  0
  2  3  2  0  0  0  0
  3 12  1  0  0  0  0
  3  4  1  0  0  0  0
  4  5  2  0  0  0  0
  4 15  1  0  0  0  0
  5  6  1  0  0  0  0
  5 25  1  0  0  0  0
  6 11  2  0  0  0  0
  6  7  1  0  0  0  0
  7  8  2  0  0  0  0
  7 26  1  0  0  0  0
  8  9  1  0  0  0  0
  8 27  1  0  0  0  0
  9 10  2  0  0  0  0
  9 14  1  0  0  0  0
 10 11  1  0  0  0  0
 10 13  1  0  0  0  0
 11 12  1  0  0  0  0
 13 28  1  0  0  0  0
 14 29  1  0  0  0  0
 15 16  2  0  0  0  0
 15 17  1  0  0  0  0
 17 18  1  0  0  0  0
 17 30  1  0  0  0  0
 18 23  2  0  0  0  0
 18 19  1  0  0  0  0
 19 20  2  0  0  0  0
 19 31  1  0  0  0  0
 20 21  1  0  0  0  0
 20 32  1  0  0  0  0
 21 22  2  0  0  0  0
 21 33  1  0  0  0  0
 22 23  1  0  0  0  0
 22 24  1  0  0  0  0
 23 34  1  0  0  0  0
 24 35  1  0  0  0  0
M  END
$$$$
ZINC03834102
  -OEChem-08230709403D

 31 33  0     0  0  0  0  0  0999 V2000
    1.1472    3.8231    0.0112 C   0  0  0  0  0  0  0  0  0  0  0  0
   -0.0557    4.5058    0.0254 C   0  0  0  0  0  0  0  0  0  0  0  0
   -1.2484    3.8091    0.0330 C   0  0  0  0  0  0  0  0  0  0  0  0
   -1.2380    2.4142    0.0210 C   0  0  0  0  0  0  0  0  0  0  0  0
   -0.0215    1.7317    0.0116 C   0  0  0  0  0  0  0  0  0  0  0  0
    1.1644    2.4401    0.0040 C   0  0  0  0  0  0  0  0  0  0  0  0
    0.0021   -0.0041    0.0020 Cl  0  0  0  0  0  0  0  0  0  0  0  0
   -2.5144    1.6604    0.0230 C   0  0  0  0  0  0  0  0  0  0  0  0
   -3.1085    1.2997    1.2204 C   0  0  0  0  0  0  0  0  0  0  0  0
   -4.3187    0.5853    1.1689 C   0  0  0  0  0  0  0  0  0  0  0  0
   -4.9873    0.1814    2.3331 C   0  0  0  0  0  0  0  0  0  0  0  0
   -6.1162   -0.4843    2.2484 N   0  0  0  0  0  0  0  0  0  0  0  0
   -6.6724   -0.8034    1.0821 C   0  0  0  0  0  0  0  0  0  0  0  0
   -6.0891   -0.4495   -0.1182 C   0  0  0  0  0  0  0  0  0  0  0  0
   -4.8801    0.2639   -0.0960 C   0  0  0  0  0  0  0  0  0  0  0  0
   -3.1351    1.3106   -1.1968 C   0  0  0  0  0  0  0  0  0  0  0  0
   -2.5394    1.6795   -2.3900 N   0  0  0  0  0  0  0  0  0  0  0  0
   -7.8698   -1.5096    1.0722 N   0  0  0  0  0  0  0  0  0  0  0  0
   -2.7571    4.6677    0.0502 Cl  0  0  0  0  0  0  0  0  0  0  0  0
    2.0771    4.3724    0.0052 H   0  0  0  0  0  0  0  0  0  0  0  0
   -0.0623    5.5857    0.0309 H   0  0  0  0  0  0  0  0  0  0  0  0
    2.1069    1.9129   -0.0071 H   0  0  0  0  0  0  0  0  0  0  0  0
   -2.6557    1.5589    2.1660 H   0  0  0  0  0  0  0  0  0  0  0  0
   -4.5732    0.4186    3.3019 H   0  0  0  0  0  0  0  0  0  0  0  0
   -6.5539   -0.7161   -1.0560 H   0  0  0  0  0  0  0  0  0  0  0  0
   -1.7043    2.1730   -2.3830 H   0  0  0  0  0  0  0  0  0  0  0  0
   -2.9568    1.4445   -3.2335 H   0  0  0  0  0  0  0  0  0  0  0  0
   -8.2899   -1.7638    1.9087 H   0  0  0  0  0  0  0  0  0  0  0  0
   -8.2853   -1.7482    0.2287 H   0  0  0  0  0  0  0  0  0  0  0  0
   -4.2977    0.6174   -1.2910 N   0  3  0  0  0  0  0  0  0  0  0  0
   -4.7158    0.3723   -2.1962 H   0  0  0  0  0  0  0  0  0  0  0  0
  1  6  2  0  0  0  0
  1  2  1  0  0  0  0
  1 20  1  0  0  0  0
  2  3  2  0  0  0  0
  2 21  1  0  0  0  0
  3  4  1  0  0  0  0
  3 19  1  0  0  0  0
  4  5  2  0  0  0  0
  4  8  1  0  0  0  0
  5  6  1  0  0  0  0
  5  7  1  0  0  0  0
  6 22  1  0  0  0  0
  8 16  2  0  0  0  0
  8  9  1  0  0  0  0
  9 10  2  0  0  0  0
  9 23  1  0  0  0  0
 10 15  1  0  0  0  0
 10 11  1  0  0  0  0
 11 12  2  0  0  0  0
 11 24  1  0  0  0  0
 12 13  1  0  0  0  0
 13 14  2  0  0  0  0
 13 18  1  0  0  0  0
 14 15  1  0  0  0  0
 14 25  1  0  0  0  0
 15 30  2  0  0  0  0
 16 17  1  0  0  0  0
 16 30  1  0  0  0  0
 17 26  1  0  0  0  0
 17 27  1  0  0  0  0
 18 28  1  0  0  0  0
 18 29  1  0  0  0  0
 30 31  1  0  0  0  0
M  CHG  1  30   1
M  END
$$$$
ZINC03834104
  -OEChem-08230709403D

 34 36  0     0  0  0  0  0  0999 V2000
    4.1724    1.8339    4.7042 C   0  0  0  0  0  0  0  0  0  0  0  0
    3.3856    1.5939    3.4919 N   0  0  0  0  0  0  0  0  0  0  0  0
    2.0226    1.8131    3.4989 C   0  0  0  0  0  0  0  0  0  0  0  0
    1.4491    2.2421    4.6181 N   0  0  0  0  0  0  0  0  0  0  0  0
    0.1500    2.4669    4.6774 C   0  0  0  0  0  0  0  0  0  0  0  0
   -0.6234    2.2433    3.5280 C   0  0  0  0  0  0  0  0  0  0  0  0
   -2.0193    2.4667    3.5297 C   0  0  0  0  0  0  0  0  0  0  0  0
   -2.7298    2.2347    2.3826 C   0  0  0  0  0  0  0  0  0  0  0  0
   -2.0286    1.7678    1.1846 C   0  0  0  0  0  0  0  0  0  0  0  0
   -2.6523    1.5636    0.1584 O   0  0  0  0  0  0  0  0  0  0  0  0
   -0.6984    1.5583    1.2133 N   0  0  0  0  0  0  0  0  0  0  0  0
    0.0218    1.7881    2.3582 C   0  0  0  0  0  0  0  0  0  0  0  0
    1.3349    1.5886    2.3902 N   0  0  0  0  0  0  0  0  0  0  0  0
   -0.0127    1.0858    0.0080 C   0  0  0  0  0  0  0  0  0  0  0  0
   -4.1940    2.4588    2.3521 C   0  0  0  0  0  0  0  0  0  0  0  0
   -5.0687    1.4209    2.6759 C   0  0  0  0  0  0  0  0  0  0  0  0
   -6.4325    1.6378    2.6502 C   0  0  0  0  0  0  0  0  0  0  0  0
   -6.9320    2.8778    2.2947 C   0  0  0  0  0  0  0  0  0  0  0  0
   -6.0705    3.9094    1.9675 C   0  0  0  0  0  0  0  0  0  0  0  0
   -4.7045    3.7071    1.9939 C   0  0  0  0  0  0  0  0  0  0  0  0
   -3.6251    5.0027    1.5818 Cl  0  0  0  0  0  0  0  0  0  0  0  0
   -4.4439   -0.1380    3.1154 Cl  0  0  0  0  0  0  0  0  0  0  0  0
    5.2204    1.6078    4.5079 H   0  0  0  0  0  0  0  0  0  0  0  0
    4.0752    2.8786    4.9996 H   0  0  0  0  0  0  0  0  0  0  0  0
    3.8069    1.1938    5.5072 H   0  0  0  0  0  0  0  0  0  0  0  0
    3.8224    1.2811    2.6843 H   0  0  0  0  0  0  0  0  0  0  0  0
   -0.3082    2.8159    5.5910 H   0  0  0  0  0  0  0  0  0  0  0  0
   -2.5177    2.8147    4.4223 H   0  0  0  0  0  0  0  0  0  0  0  0
    0.0021   -0.0041    0.0020 H   0  0  0  0  0  0  0  0  0  0  0  0
    1.0099    1.4631    0.0003 H   0  0  0  0  0  0  0  0  0  0  0  0
   -0.5399    1.4469   -0.8751 H   0  0  0  0  0  0  0  0  0  0  0  0
   -7.1104    0.8364    2.9042 H   0  0  0  0  0  0  0  0  0  0  0  0
   -7.9994    3.0410    2.2722 H   0  0  0  0  0  0  0  0  0  0  0  0
   -6.4670    4.8750    1.6904 H   0  0  0  0  0  0  0  0  0  0  0  0
  1  2  1  0  0  0  0
  1 23  1  0  0  0  0
  1 24  1  0  0  0  0
  1 25  1  0  0  0  0
  2  3  1  0  0  0  0
  2 26  1  0  0  0  0
  3 13  2  0  0  0  0
  3  4  1  0  0  0  0
  4  5  2  0  0  0  0
  5  6  1  0  0  0  0
  5 27  1  0  0  0  0
  6 12  2  0  0  0  0
  6  7  1  0  0  0  0
  7  8  2  0  0  0  0
  7 28  1  0  0  0  0
  8  9  1  0  0  0  0
  8 15  1  0  0  0  0
  9 10  2  0  0  0  0
  9 11  1  0  0  0  0
 11 12  1  0  0  0  0
 11 14  1  0  0  0  0
 12 13  1  0  0  0  0
 14 29  1  0  0  0  0
 14 30  1  0  0  0  0
 14 31  1  0  0  0  0
 15 20  2  0  0  0  0
 15 16  1  0  0  0  0
 16 17  2  0  0  0  0
 16 22  1  0  0  0  0
 17 18  1  0  0  0  0
 17 32  1  0  0  0  0
 18 19  2  0  0  0  0
 18 33  1  0  0  0  0
 19 20  1  0  0  0  0
 19 34  1  0  0  0  0
 20 21  1  0  0  0  0
M  END
$$$$
ZINC03834105
  -OEChem-08230709403D

 26 28  0     0  0  0  0  0  0999 V2000
    0.0189   -2.0662   -1.2257 C   0  0  0  0  0  0  0  0  0  0  0  0
   -0.0058   -0.6883   -1.2077 C   0  0  0  0  0  0  0  0  0  0  0  0
    0.0021   -0.0041    0.0020 C   0  0  0  0  0  0  0  0  0  0  0  0
    0.0229   -0.6998    1.2017 C   0  0  0  0  0  0  0  0  0  0  0  0
    0.0418   -2.0933    1.1971 C   0  0  0  0  0  0  0  0  0  0  0  0
    0.0396   -2.7772   -0.0271 C   0  0  0  0  0  0  0  0  0  0  0  0
    0.0617   -4.2161    0.2963 C   0  0  0  0  0  0  0  0  0  0  0  0
    0.0703   -5.3717   -0.4841 C   0  0  0  0  0  0  0  0  0  0  0  0
    0.0929   -6.6108    0.1244 C   0  0  0  0  0  0  0  0  0  0  0  0
    0.1071   -6.7067    1.5162 C   0  0  0  0  0  0  0  0  0  0  0  0
    0.0988   -5.5658    2.2958 C   0  0  0  0  0  0  0  0  0  0  0  0
    0.0760   -4.3109    1.6950 C   0  0  0  0  0  0  0  0  0  0  0  0
    0.0638   -3.0285    2.2199 N   0  0  0  0  0  0  0  0  0  0  0  0
    0.0703   -2.8160    3.1663 H   0  0  0  0  0  0  0  0  0  0  0  0
    0.1289   -7.9303    2.1092 O   0  0  0  0  0  0  0  0  0  0  0  0
    0.1008   -7.7403   -0.6344 O   0  0  0  0  0  0  0  0  0  0  0  0
    0.0244   -0.0224    2.3820 O   0  0  0  0  0  0  0  0  0  0  0  0
   -0.0164    1.3560    0.0095 O   0  0  0  0  0  0  0  0  0  0  0  0
    0.0169   -2.5946   -2.1676 H   0  0  0  0  0  0  0  0  0  0  0  0
   -0.0269   -0.1383   -2.1369 H   0  0  0  0  0  0  0  0  0  0  0  0
    0.0596   -5.2976   -1.5615 H   0  0  0  0  0  0  0  0  0  0  0  0
    0.1095   -5.6482    3.3726 H   0  0  0  0  0  0  0  0  0  0  0  0
   -0.7481   -8.2961    2.2886 H   0  0  0  0  0  0  0  0  0  0  0  0
   -0.7802   -8.0785   -0.8455 H   0  0  0  0  0  0  0  0  0  0  0  0
   -0.8584    0.1611    2.7313 H   0  0  0  0  0  0  0  0  0  0  0  0
    0.8616    1.7613    0.0033 H   0  0  0  0  0  0  0  0  0  0  0  0
  1  6  2  0  0  0  0
  1  2  1  0  0  0  0
  1 19  1  0  0  0  0
  2  3  2  0  0  0  0
  2 20  1  0  0  0  0
  3  4  1  0  0  0  0
  3 18  1  0  0  0  0
  4  5  2  0  0  0  0
  4 17  1  0  0  0  0
  5 13  1  0  0  0  0
  5  6  1  0  0  0  0
  6  7  1  0  0  0  0
  7 12  2  0  0  0  0
  7  8  1  0  0  0  0
  8  9  2  0  0  0  0
  8 21  1  0  0  0  0
  9 10  1  0  0  0  0
  9 16  1  0  0  0  0
 10 11  2  0  0  0  0
 10 15  1  0  0  0  0
 11 12  1  0  0  0  0
 11 22  1  0  0  0  0
 12 13  1  0  0  0  0
 13 14  1  0  0  0  0
 15 23  1  0  0  0  0
 16 24  1  0  0  0  0
 17 25  1  0  0  0  0
 18 26  1  0  0  0  0
M  END
$$$$
ZINC03834106
  -OEChem-08230709403D

 43 46  0     0  0  0  0  0  0999 V2000
   -2.4713   -4.2926    2.0704 C   0  0  0  0  0  0  0  0  0  0  0  0
   -2.8530   -4.5328    3.3772 C   0  0  0  0  0  0  0  0  0  0  0  0
   -3.6526   -3.6222    4.0422 C   0  0  0  0  0  0  0  0  0  0  0  0
   -4.0683   -2.4700    3.4014 C   0  0  0  0  0  0  0  0  0  0  0  0
   -3.6834   -2.2280    2.0959 C   0  0  0  0  0  0  0  0  0  0  0  0
   -2.8826   -3.1379    1.4314 C   0  0  0  0  0  0  0  0  0  0  0  0
   -2.4631   -2.8740    0.0082 C   0  0  0  0  0  0  0  0  0  0  0  0
   -1.2014   -2.1294    0.0012 N   0  0  0  0  0  0  0  0  0  0  0  0
   -0.0075   -2.8350   -0.0141 C   0  0  0  0  0  0  0  0  0  0  0  0
   -0.0250   -4.2258   -0.0224 C   0  0  0  0  0  0  0  0  0  0  0  0
    1.1616   -4.9349   -0.0384 C   0  0  0  0  0  0  0  0  0  0  0  0
    2.3853   -4.2640   -0.0456 C   0  0  0  0  0  0  0  0  0  0  0  0
    2.4172   -2.8839   -0.0375 C   0  0  0  0  0  0  0  0  0  0  0  0
    1.2233   -2.1620   -0.0218 C   0  0  0  0  0  0  0  0  0  0  0  0
    1.2368   -0.6871   -0.0134 C   0  0  0  0  0  0  0  0  0  0  0  0
    2.4276    0.0301   -0.0209 C   0  0  0  0  0  0  0  0  0  0  0  0
    2.3943    1.4134   -0.0132 C   0  0  0  0  0  0  0  0  0  0  0  0
    1.1725    2.0918    0.0021 C   0  0  0  0  0  0  0  0  0  0  0  0
   -0.0169    1.3920    0.0097 C   0  0  0  0  0  0  0  0  0  0  0  0
    0.0021   -0.0041    0.0020 C   0  0  0  0  0  0  0  0  0  0  0  0
   -1.2407   -0.7853    0.0092 C   0  0  0  0  0  0  0  0  0  0  0  0
   -2.3147   -0.2122    0.0230 O   0  0  0  0  0  0  0  0  0  0  0  0
    1.1556    3.4516    0.0091 O   0  0  0  0  0  0  0  0  0  0  0  0
    3.5565    2.1164   -0.0209 O   0  0  0  0  0  0  0  0  0  0  0  0
    3.5478   -4.9706   -0.0610 O   0  0  0  0  0  0  0  0  0  0  0  0
    1.1362   -6.2939   -0.0469 O   0  0  0  0  0  0  0  0  0  0  0  0
   -4.0643   -3.8812    5.4402 N   0  3  0  0  0  0  0  0  0  0  0  0
   -4.7692   -3.0790    6.0260 O   0  0  0  0  0  0  0  0  0  0  0  0
   -3.6981   -4.8964    6.0048 O   0  5  0  0  0  0  0  0  0  0  0  0
   -1.8493   -5.0056    1.5498 H   0  0  0  0  0  0  0  0  0  0  0  0
   -2.5285   -5.4332    3.8777 H   0  0  0  0  0  0  0  0  0  0  0  0
   -4.6933   -1.7588    3.9208 H   0  0  0  0  0  0  0  0  0  0  0  0
   -4.0081   -1.3278    1.5953 H   0  0  0  0  0  0  0  0  0  0  0  0
   -3.2330   -2.2891   -0.4950 H   0  0  0  0  0  0  0  0  0  0  0  0
   -2.3284   -3.8220   -0.5126 H   0  0  0  0  0  0  0  0  0  0  0  0
   -0.9676   -4.7529   -0.0166 H   0  0  0  0  0  0  0  0  0  0  0  0
    3.3639   -2.3643   -0.0438 H   0  0  0  0  0  0  0  0  0  0  0  0
    3.3741   -0.4899   -0.0331 H   0  0  0  0  0  0  0  0  0  0  0  0
   -0.9580    1.9217    0.0170 H   0  0  0  0  0  0  0  0  0  0  0  0
    1.1590    3.8404    0.8945 H   0  0  0  0  0  0  0  0  0  0  0  0
    3.8842    2.3247   -0.9065 H   0  0  0  0  0  0  0  0  0  0  0  0
    3.8923   -5.1802    0.8179 H   0  0  0  0  0  0  0  0  0  0  0  0
    1.1372   -6.6928    0.8340 H   0  0  0  0  0  0  0  0  0  0  0  0
  1  6  2  0  0  0  0
  1  2  1  0  0  0  0
  1 30  1  0  0  0  0
  2  3  2  0  0  0  0
  2 31  1  0  0  0  0
  3  4  1  0  0  0  0
  3 27  1  0  0  0  0
  4  5  2  0  0  0  0
  4 32  1  0  0  0  0
  5  6  1  0  0  0  0
  5 33  1  0  0  0  0
  6  7  1  0  0  0  0
  7  8  1  0  0  0  0
  7 34  1  0  0  0  0
  7 35  1  0  0  0  0
  8 21  1  0  0  0  0
  8  9  1  0  0  0  0
  9 14  2  0  0  0  0
  9 10  1  0  0  0  0
 10 11  2  0  0  0  0
 10 36  1  0  0  0  0
 11 12  1  0  0  0  0
 11 26  1  0  0  0  0
 12 13  2  0  0  0  0
 12 25  1  0  0  0  0
 13 14  1  0  0  0  0
 13 37  1  0  0  0  0
 14 15  1  0  0  0  0
 15 20  2  0  0  0  0
 15 16  1  0  0  0  0
 16 17  2  0  0  0  0
 16 38  1  0  0  0  0
 17 18  1  0  0  0  0
 17 24  1  0  0  0  0
 18 19  2  0  0  0  0
 18 23  1  0  0  0  0
 19 20  1  0  0  0  0
 19 39  1  0  0  0  0
 20 21  1  0  0  0  0
 21 22  2  0  0  0  0
 23 40  1  0  0  0  0
 24 41  1  0  0  0  0
 25 42  1  0  0  0  0
 26 43  1  0  0  0  0
 27 28  2  0  0  0  0
 27 29  1  0  0  0  0
M  CHG  2  27   1  29  -1
M  END
$$$$
ZINC03834108
  -OEChem-08230709403D

 55 57  0     0  0  0  0  0  0999 V2000
    0.9227    3.1797   -3.2899 C   0  0  0  0  0  0  0  0  0  0  0  0
   -0.5698    2.9324   -3.5185 C   0  0  0  0  0  0  0  0  0  0  0  0
   -0.1168    1.0015   -4.9075 C   0  0  0  0  0  0  0  0  0  0  0  0
   -0.8303    1.5255   -6.1553 C   0  0  0  0  0  0  0  0  0  0  0  0
   -0.3975    0.7345   -2.5174 C   0  0  0  0  0  0  0  0  0  0  0  0
   -1.3062    1.1009   -1.3423 C   0  0  0  0  0  0  0  0  0  0  0  0
   -0.8822    0.3093   -0.1035 C   0  0  0  0  0  0  0  0  0  0  0  0
   -1.7523    0.6602    1.0217 N   0  0  0  0  0  0  0  0  0  0  0  0
   -1.5597    0.0681    2.2539 C   0  0  0  0  0  0  0  0  0  0  0  0
   -0.5816   -0.8207    2.3911 N   0  0  0  0  0  0  0  0  0  0  0  0
   -0.3523   -1.4109    3.5490 C   0  0  0  0  0  0  0  0  0  0  0  0
   -1.1734   -1.0900    4.6407 C   0  0  0  0  0  0  0  0  0  0  0  0
   -0.9809   -1.6936    5.9044 C   0  0  0  0  0  0  0  0  0  0  0  0
   -1.8086   -1.3471    6.9384 C   0  0  0  0  0  0  0  0  0  0  0  0
   -2.8698   -0.3637    6.7112 C   0  0  0  0  0  0  0  0  0  0  0  0
   -3.6106   -0.0493    7.6257 O   0  0  0  0  0  0  0  0  0  0  0  0
   -3.0305    0.1952    5.4963 N   0  0  0  0  0  0  0  0  0  0  0  0
   -2.2055   -0.1456    4.4544 C   0  0  0  0  0  0  0  0  0  0  0  0
   -2.3598    0.4028    3.2541 N   0  0  0  0  0  0  0  0  0  0  0  0
   -4.0969    1.1773    5.2854 C   0  0  0  0  0  0  0  0  0  0  0  0
   -1.6328   -1.9618    8.2750 C   0  0  0  0  0  0  0  0  0  0  0  0
   -2.3107   -3.1372    8.6004 C   0  0  0  0  0  0  0  0  0  0  0  0
   -2.1390   -3.7074    9.8466 C   0  0  0  0  0  0  0  0  0  0  0  0
   -1.3050   -3.1104   10.7747 C   0  0  0  0  0  0  0  0  0  0  0  0
   -0.6337   -1.9426   10.4602 C   0  0  0  0  0  0  0  0  0  0  0  0
   -0.7929   -1.3647    9.2159 C   0  0  0  0  0  0  0  0  0  0  0  0
    0.0495    0.1016    8.8235 Cl  0  0  0  0  0  0  0  0  0  0  0  0
   -3.3634   -3.8841    7.4395 Cl  0  0  0  0  0  0  0  0  0  0  0  0
    1.4836    2.8512   -4.1649 H   0  0  0  0  0  0  0  0  0  0  0  0
    1.0939    4.2438   -3.1271 H   0  0  0  0  0  0  0  0  0  0  0  0
    1.2539    2.6204   -2.4149 H   0  0  0  0  0  0  0  0  0  0  0  0
   -0.8958    3.4731   -4.4070 H   0  0  0  0  0  0  0  0  0  0  0  0
   -1.1327    3.2822   -2.6532 H   0  0  0  0  0  0  0  0  0  0  0  0
    0.9152    1.3523   -4.9048 H   0  0  0  0  0  0  0  0  0  0  0  0
   -0.1301   -0.0884   -4.9121 H   0  0  0  0  0  0  0  0  0  0  0  0
   -0.8194    2.6155   -6.1494 H   0  0  0  0  0  0  0  0  0  0  0  0
   -0.3183    1.1619   -7.0463 H   0  0  0  0  0  0  0  0  0  0  0  0
   -1.8616    1.1725   -6.1594 H   0  0  0  0  0  0  0  0  0  0  0  0
    0.6354    0.9768   -2.2673 H   0  0  0  0  0  0  0  0  0  0  0  0
   -0.4810   -0.3329   -2.7222 H   0  0  0  0  0  0  0  0  0  0  0  0
   -2.3391    0.8586   -1.5923 H   0  0  0  0  0  0  0  0  0  0  0  0
   -1.2227    2.1683   -1.1375 H   0  0  0  0  0  0  0  0  0  0  0  0
   -0.9657   -0.7580   -0.3083 H   0  0  0  0  0  0  0  0  0  0  0  0
    0.1507    0.5516    0.1465 H   0  0  0  0  0  0  0  0  0  0  0  0
   -2.4636    1.3085    0.9009 H   0  0  0  0  0  0  0  0  0  0  0  0
    0.4477   -2.1289    3.6531 H   0  0  0  0  0  0  0  0  0  0  0  0
   -0.1923   -2.4166    6.0522 H   0  0  0  0  0  0  0  0  0  0  0  0
   -5.0058    0.6648    4.9702 H   0  0  0  0  0  0  0  0  0  0  0  0
   -4.2861    1.7135    6.2154 H   0  0  0  0  0  0  0  0  0  0  0  0
   -3.7922    1.8844    4.5138 H   0  0  0  0  0  0  0  0  0  0  0  0
   -2.6600   -4.6194   10.0983 H   0  0  0  0  0  0  0  0  0  0  0  0
   -1.1777   -3.5579   11.7493 H   0  0  0  0  0  0  0  0  0  0  0  0
    0.0160   -1.4814   11.1893 H   0  0  0  0  0  0  0  0  0  0  0  0
   -0.8328    1.4906   -3.7105 N   0  3  0  0  0  0  0  0  0  0  0  0
   -1.8411    1.3505   -3.8446 H   0  0  0  0  0  0  0  0  0  0  0  0
  1  2  1  0  0  0  0
  1 29  1  0  0  0  0
  1 30  1  0  0  0  0
  1 31  1  0  0  0  0
  2 32  1  0  0  0  0
  2 33  1  0  0  0  0
  2 54  1  0  0  0  0
  3  4  1  0  0  0  0
  3 34  1  0  0  0  0
  3 35  1  0  0  0  0
  3 54  1  0  0  0  0
  4 36  1  0  0  0  0
  4 37  1  0  0  0  0
  4 38  1  0  0  0  0
  5  6  1  0  0  0  0
  5 39  1  0  0  0  0
  5 40  1  0  0  0  0
  5 54  1  0  0  0  0
  6  7  1  0  0  0  0
  6 41  1  0  0  0  0
  6 42  1  0  0  0  0
  7  8  1  0  0  0  0
  7 43  1  0  0  0  0
  7 44  1  0  0  0  0
  8  9  1  0  0  0  0
  8 45  1  0  0  0  0
  9 19  2  0  0  0  0
  9 10  1  0  0  0  0
 10 11  2  0  0  0  0
 11 12  1  0  0  0  0
 11 46  1  0  0  0  0
 12 18  2  0  0  0  0
 12 13  1  0  0  0  0
 13 14  2  0  0  0  0
 13 47  1  0  0  0  0
 14 15  1  0  0  0  0
 14 21  1  0  0  0  0
 15 16  2  0  0  0  0
 15 17  1  0  0  0  0
 17 18  1  0  0  0  0
 17 20  1  0  0  0  0
 18 19  1  0  0  0  0
 20 48  1  0  0  0  0
 20 49  1  0  0  0  0
 20 50  1  0  0  0  0
 21 26  2  0  0  0  0
 21 22  1  0  0  0  0
 22 23  2  0  0  0  0
 22 28  1  0  0  0  0
 23 24  1  0  0  0  0
 23 51  1  0  0  0  0
 24 25  2  0  0  0  0
 24 52  1  0  0  0  0
 25 26  1  0  0  0  0
 25 53  1  0  0  0  0
 26 27  1  0  0  0  0
 54 55  1  0  0  0  0
M  CHG  1  54   1
M  END
$$$$
ZINC04617831
  -OEChem-08230709403D

 58 62  0     0  0  0  0  0  0999 V2000
   -7.0635   -9.2112   -0.0249 C   0  0  0  0  0  0  0  0  0  0  0  0
   -6.5564   -8.1002    0.7171 O   0  0  0  0  0  0  0  0  0  0  0  0
   -7.1394   -7.8420    1.9166 C   0  0  0  0  0  0  0  0  0  0  0  0
   -8.1743   -8.6422    2.3734 C   0  0  0  0  0  0  0  0  0  0  0  0
   -8.7703   -8.3751    3.5913 C   0  0  0  0  0  0  0  0  0  0  0  0
   -8.3357   -7.3121    4.3635 C   0  0  0  0  0  0  0  0  0  0  0  0
   -7.3029   -6.5098    3.9232 C   0  0  0  0  0  0  0  0  0  0  0  0
   -6.6943   -6.7703    2.6970 C   0  0  0  0  0  0  0  0  0  0  0  0
   -5.5843   -5.9116    2.2192 C   0  0  0  0  0  0  0  0  0  0  0  0
   -4.3982   -6.4960    1.7699 C   0  0  0  0  0  0  0  0  0  0  0  0
   -3.3652   -5.7015    1.3249 C   0  0  0  0  0  0  0  0  0  0  0  0
   -3.5083   -4.3161    1.3184 C   0  0  0  0  0  0  0  0  0  0  0  0
   -4.6935   -3.7197    1.7738 C   0  0  0  0  0  0  0  0  0  0  0  0
   -5.7302   -4.5275    2.2203 C   0  0  0  0  0  0  0  0  0  0  0  0
   -4.5776   -2.3384    1.6707 N   0  0  0  0  0  0  0  0  0  0  0  0
   -3.3790   -1.9834    1.1778 C   0  0  0  0  0  0  0  0  0  0  0  0
   -2.9965   -0.8443    0.9776 O   0  0  0  0  0  0  0  0  0  0  0  0
   -2.6110   -3.2089    0.9217 C   0  0  0  0  0  0  0  0  0  0  0  0
   -1.3291   -3.3068    0.4142 C   0  0  0  0  0  0  0  0  0  0  0  0
   -0.5540   -2.1437    0.2277 C   0  0  0  0  0  0  0  0  0  0  0  0
    0.3715   -1.9272   -0.7841 C   0  0  0  0  0  0  0  0  0  0  0  0
    0.8977   -0.6555   -0.5869 C   0  0  0  0  0  0  0  0  0  0  0  0
    0.3062   -0.1185    0.5157 C   0  0  0  0  0  0  0  0  0  0  0  0
   -0.5769   -1.0122    1.0172 N   0  0  0  0  0  0  0  0  0  0  0  0
   -1.1328   -0.8800    1.8010 H   0  0  0  0  0  0  0  0  0  0  0  0
    0.6203    1.2582    1.0519 C   0  0  0  0  0  0  0  0  0  0  0  0
    1.9448    1.7264    0.4380 C   0  0  0  0  0  0  0  0  0  0  0  0
    1.8979    1.5449   -1.0811 C   0  0  0  0  0  0  0  0  0  0  0  0
    1.9398    0.0497   -1.4191 C   0  0  0  0  0  0  0  0  0  0  0  0
    0.7365   -2.8878   -1.8864 C   0  0  0  0  0  0  0  0  0  0  0  0
    1.8987   -3.7715   -1.4289 C   0  0  0  0  0  0  0  0  0  0  0  0
    2.2636   -4.7321   -2.5312 C   0  0  0  0  0  0  0  0  0  0  0  0
    1.6564   -4.7120   -3.5756 O   0  0  0  0  0  0  0  0  0  0  0  0
   -8.1200   -9.0521   -0.2409 H   0  0  0  0  0  0  0  0  0  0  0  0
   -6.5117   -9.3058   -0.9601 H   0  0  0  0  0  0  0  0  0  0  0  0
   -6.9457  -10.1232    0.5603 H   0  0  0  0  0  0  0  0  0  0  0  0
   -8.5182   -9.4731    1.7752 H   0  0  0  0  0  0  0  0  0  0  0  0
   -9.5794   -8.9987    3.9420 H   0  0  0  0  0  0  0  0  0  0  0  0
   -8.8067   -7.1095    5.3140 H   0  0  0  0  0  0  0  0  0  0  0  0
   -6.9668   -5.6806    4.5282 H   0  0  0  0  0  0  0  0  0  0  0  0
   -4.2912   -7.5707    1.7711 H   0  0  0  0  0  0  0  0  0  0  0  0
   -2.4475   -6.1522    0.9768 H   0  0  0  0  0  0  0  0  0  0  0  0
   -6.6501   -4.0819    2.5690 H   0  0  0  0  0  0  0  0  0  0  0  0
   -5.2733   -1.7109    1.9219 H   0  0  0  0  0  0  0  0  0  0  0  0
   -0.9211   -4.2740    0.1605 H   0  0  0  0  0  0  0  0  0  0  0  0
   -0.1763    1.9496    0.7772 H   0  0  0  0  0  0  0  0  0  0  0  0
    0.7131    1.2169    2.1372 H   0  0  0  0  0  0  0  0  0  0  0  0
    2.1022    2.7789    0.6734 H   0  0  0  0  0  0  0  0  0  0  0  0
    2.7641    1.1362    0.8486 H   0  0  0  0  0  0  0  0  0  0  0  0
    2.7550    2.0439   -1.5334 H   0  0  0  0  0  0  0  0  0  0  0  0
    0.9773    1.9798   -1.4703 H   0  0  0  0  0  0  0  0  0  0  0  0
    2.9268   -0.3513   -1.1885 H   0  0  0  0  0  0  0  0  0  0  0  0
    1.7230   -0.0936   -2.4777 H   0  0  0  0  0  0  0  0  0  0  0  0
   -0.1243   -3.5133   -2.1230 H   0  0  0  0  0  0  0  0  0  0  0  0
    1.0332   -2.3276   -2.7731 H   0  0  0  0  0  0  0  0  0  0  0  0
    2.7594   -3.1460   -1.1923 H   0  0  0  0  0  0  0  0  0  0  0  0
    1.6019   -4.3317   -0.5422 H   0  0  0  0  0  0  0  0  0  0  0  0
    3.2632   -5.6100   -2.3527 O   0  5  0  0  0  0  0  0  0  0  0  0
  1  2  1  0  0  0  0
  1 34  1  0  0  0  0
  1 35  1  0  0  0  0
  1 36  1  0  0  0  0
  2  3  1  0  0  0  0
  3  8  2  0  0  0  0
  3  4  1  0  0  0  0
  4  5  2  0  0  0  0
  4 37  1  0  0  0  0
  5  6  1  0  0  0  0
  5 38  1  0  0  0  0
  6  7  2  0  0  0  0
  6 39  1  0  0  0  0
  7  8  1  0  0  0  0
  7 40  1  0  0  0  0
  8  9  1  0  0  0  0
  9 14  2  0  0  0  0
  9 10  1  0  0  0  0
 10 11  2  0  0  0  0
 10 41  1  0  0  0  0
 11 12  1  0  0  0  0
 11 42  1  0  0  0  0
 12 18  1  0  0  0  0
 12 13  2  0  0  0  0
 13 14  1  0  0  0  0
 13 15  1  0  0  0  0
 14 43  1  0  0  0  0
 15 16  1  0  0  0  0
 15 44  1  0  0  0  0
 16 17  2  0  0  0  0
 16 18  1  0  0  0  0
 18 19  2  0  0  0  0
 19 20  1  0  0  0  0
 19 45  1  0  0  0  0
 20 24  1  0  0  0  0
 20 21  2  0  0  0  0
 21 22  1  0  0  0  0
 21 30  1  0  0  0  0
 22 29  1  0  0  0  0
 22 23  2  0  0  0  0
 23 24  1  0  0  0  0
 23 26  1  0  0  0  0
 24 25  1  0  0  0  0
 26 27  1  0  0  0  0
 26 46  1  0  0  0  0
 26 47  1  0  0  0  0
 27 28  1  0  0  0  0
 27 48  1  0  0  0  0
 27 49  1  0  0  0  0
 28 29  1  0  0  0  0
 28 50  1  0  0  0  0
 28 51  1  0  0  0  0
 29 52  1  0  0  0  0
 29 53  1  0  0  0  0
 30 31  1  0  0  0  0
 30 54  1  0  0  0  0
 30 55  1  0  0  0  0
 31 32  1  0  0  0  0
 31 56  1  0  0  0  0
 31 57  1  0  0  0  0
 32 33  2  0  0  0  0
 32 58  1  0  0  0  0
M  CHG  1  58  -1
M  END
$$$$
ZINC04617837
  -OEChem-08230709403D

 58 62  0     0  0  0  0  0  0999 V2000
  -10.9671   -8.5001    4.4873 C   0  0  0  0  0  0  0  0  0  0  0  0
   -9.7815   -9.1612    4.0408 O   0  0  0  0  0  0  0  0  0  0  0  0
   -8.7648   -8.3743    3.6009 C   0  0  0  0  0  0  0  0  0  0  0  0
   -7.5848   -8.9530    3.1532 C   0  0  0  0  0  0  0  0  0  0  0  0
   -6.5512   -8.1571    2.7062 C   0  0  0  0  0  0  0  0  0  0  0  0
   -6.6921   -6.7700    2.7041 C   0  0  0  0  0  0  0  0  0  0  0  0
   -7.8763   -6.1918    3.1593 C   0  0  0  0  0  0  0  0  0  0  0  0
   -8.9080   -6.9934    3.6005 C   0  0  0  0  0  0  0  0  0  0  0  0
   -5.5824   -5.9113    2.2245 C   0  0  0  0  0  0  0  0  0  0  0  0
   -4.3966   -6.4957    1.7748 C   0  0  0  0  0  0  0  0  0  0  0  0
   -3.3640   -5.7014    1.3287 C   0  0  0  0  0  0  0  0  0  0  0  0
   -3.5072   -4.3159    1.3216 C   0  0  0  0  0  0  0  0  0  0  0  0
   -4.6924   -3.7195    1.7771 C   0  0  0  0  0  0  0  0  0  0  0  0
   -5.7286   -4.5274    2.2247 C   0  0  0  0  0  0  0  0  0  0  0  0
   -4.5767   -2.3383    1.6733 N   0  0  0  0  0  0  0  0  0  0  0  0
   -3.3783   -1.9833    1.1799 C   0  0  0  0  0  0  0  0  0  0  0  0
   -2.9961   -0.8442    0.9790 O   0  0  0  0  0  0  0  0  0  0  0  0
   -2.6103   -3.2089    0.9242 C   0  0  0  0  0  0  0  0  0  0  0  0
   -1.3284   -3.3068    0.4163 C   0  0  0  0  0  0  0  0  0  0  0  0
   -0.5536   -2.1437    0.2290 C   0  0  0  0  0  0  0  0  0  0  0  0
    0.3715   -1.9275   -0.7833 C   0  0  0  0  0  0  0  0  0  0  0  0
    0.8976   -0.6556   -0.5869 C   0  0  0  0  0  0  0  0  0  0  0  0
    0.3065   -0.1182    0.5158 C   0  0  0  0  0  0  0  0  0  0  0  0
   -0.5763   -1.0119    1.0180 N   0  0  0  0  0  0  0  0  0  0  0  0
   -1.1322   -0.8792    1.8018 H   0  0  0  0  0  0  0  0  0  0  0  0
    0.6212    1.2584    1.0518 C   0  0  0  0  0  0  0  0  0  0  0  0
    1.9458    1.7260    0.4375 C   0  0  0  0  0  0  0  0  0  0  0  0
    1.8973    1.5448   -1.0824 C   0  0  0  0  0  0  0  0  0  0  0  0
    1.9393    0.0494   -1.4198 C   0  0  0  0  0  0  0  0  0  0  0  0
    0.7357   -2.8883   -1.8857 C   0  0  0  0  0  0  0  0  0  0  0  0
    1.8985   -3.7716   -1.4288 C   0  0  0  0  0  0  0  0  0  0  0  0
    2.2627   -4.7325   -2.5311 C   0  0  0  0  0  0  0  0  0  0  0  0
    1.6547   -4.7128   -3.5751 O   0  0  0  0  0  0  0  0  0  0  0  0
  -10.7239   -7.8422    5.3216 H   0  0  0  0  0  0  0  0  0  0  0  0
  -11.3846   -7.9117    3.6702 H   0  0  0  0  0  0  0  0  0  0  0  0
  -11.6970   -9.2422    4.8106 H   0  0  0  0  0  0  0  0  0  0  0  0
   -7.4765  -10.0275    3.1547 H   0  0  0  0  0  0  0  0  0  0  0  0
   -5.6335   -8.6078    2.3584 H   0  0  0  0  0  0  0  0  0  0  0  0
   -7.9868   -5.1175    3.1631 H   0  0  0  0  0  0  0  0  0  0  0  0
   -9.8269   -6.5462    3.9501 H   0  0  0  0  0  0  0  0  0  0  0  0
   -4.2893   -7.5704    1.7771 H   0  0  0  0  0  0  0  0  0  0  0  0
   -2.4463   -6.1521    0.9805 H   0  0  0  0  0  0  0  0  0  0  0  0
   -6.6485   -4.0817    2.5736 H   0  0  0  0  0  0  0  0  0  0  0  0
   -5.2724   -1.7108    1.9247 H   0  0  0  0  0  0  0  0  0  0  0  0
   -0.9204   -4.2741    0.1629 H   0  0  0  0  0  0  0  0  0  0  0  0
   -0.1752    1.9501    0.7771 H   0  0  0  0  0  0  0  0  0  0  0  0
    0.7142    1.2172    2.1370 H   0  0  0  0  0  0  0  0  0  0  0  0
    2.1036    2.7785    0.6727 H   0  0  0  0  0  0  0  0  0  0  0  0
    2.7649    1.1356    0.8480 H   0  0  0  0  0  0  0  0  0  0  0  0
    2.7541    2.0436   -1.5352 H   0  0  0  0  0  0  0  0  0  0  0  0
    0.9764    1.9793   -1.4714 H   0  0  0  0  0  0  0  0  0  0  0  0
    2.9264   -0.3514   -1.1895 H   0  0  0  0  0  0  0  0  0  0  0  0
    1.7219   -0.0944   -2.4782 H   0  0  0  0  0  0  0  0  0  0  0  0
   -0.1251   -3.5140   -2.1215 H   0  0  0  0  0  0  0  0  0  0  0  0
    1.0317   -2.3283   -2.7727 H   0  0  0  0  0  0  0  0  0  0  0  0
    2.7593   -3.1459   -1.1930 H   0  0  0  0  0  0  0  0  0  0  0  0
    1.6025   -4.3317   -0.5417 H   0  0  0  0  0  0  0  0  0  0  0  0
    3.2626   -5.6102   -2.3532 O   0  5  0  0  0  0  0  0  0  0  0  0
  1  2  1  0  0  0  0
  1 34  1  0  0  0  0
  1 35  1  0  0  0  0
  1 36  1  0  0  0  0
  2  3  1  0  0  0  0
  3  8  2  0  0  0  0
  3  4  1  0  0  0  0
  4  5  2  0  0  0  0
  4 37  1  0  0  0  0
  5  6  1  0  0  0  0
  5 38  1  0  0  0  0
  6  7  2  0  0  0  0
  6  9  1  0  0  0  0
  7  8  1  0  0  0  0
  7 39  1  0  0  0  0
  8 40  1  0  0  0  0
  9 14  2  0  0  0  0
  9 10  1  0  0  0  0
 10 11  2  0  0  0  0
 10 41  1  0  0  0  0
 11 12  1  0  0  0  0
 11 42  1  0  0  0  0
 12 18  1  0  0  0  0
 12 13  2  0  0  0  0
 13 14  1  0  0  0  0
 13 15  1  0  0  0  0
 14 43  1  0  0  0  0
 15 16  1  0  0  0  0
 15 44  1  0  0  0  0
 16 17  2  0  0  0  0
 16 18  1  0  0  0  0
 18 19  2  0  0  0  0
 19 20  1  0  0  0  0
 19 45  1  0  0  0  0
 20 24  1  0  0  0  0
 20 21  2  0  0  0  0
 21 22  1  0  0  0  0
 21 30  1  0  0  0  0
 22 29  1  0  0  0  0
 22 23  2  0  0  0  0
 23 24  1  0  0  0  0
 23 26  1  0  0  0  0
 24 25  1  0  0  0  0
 26 27  1  0  0  0  0
 26 46  1  0  0  0  0
 26 47  1  0  0  0  0
 27 28  1  0  0  0  0
 27 48  1  0  0  0  0
 27 49  1  0  0  0  0
 28 29  1  0  0  0  0
 28 50  1  0  0  0  0
 28 51  1  0  0  0  0
 29 52  1  0  0  0  0
 29 53  1  0  0  0  0
 30 31  1  0  0  0  0
 30 54  1  0  0  0  0
 30 55  1  0  0  0  0
 31 32  1  0  0  0  0
 31 56  1  0  0  0  0
 31 57  1  0  0  0  0
 32 33  2  0  0  0  0
 32 58  1  0  0  0  0
M  CHG  1  58  -1
M  END
$$$$
ZINC04617935
  -OEChem-08230709403D

 32 34  0     0  0  0  0  0  0999 V2000
    1.1636    6.1977    0.0145 C   0  0  0  0  0  0  0  0  0  0  0  0
   -0.0976    5.5258    0.0246 O   0  0  0  0  0  0  0  0  0  0  0  0
   -0.0728    4.1653    0.0198 C   0  0  0  0  0  0  0  0  0  0  0  0
    1.1385    3.4955    0.0058 C   0  0  0  0  0  0  0  0  0  0  0  0
    1.1712    2.1107    0.0022 C   0  0  0  0  0  0  0  0  0  0  0  0
   -0.0169    1.3952    0.0097 C   0  0  0  0  0  0  0  0  0  0  0  0
   -1.2347    2.0637    0.0191 C   0  0  0  0  0  0  0  0  0  0  0  0
   -1.2651    3.4479    0.0295 C   0  0  0  0  0  0  0  0  0  0  0  0
   -2.4561    4.1041    0.0440 O   0  0  0  0  0  0  0  0  0  0  0  0
   -3.6387    3.3020    0.0533 C   0  0  0  0  0  0  0  0  0  0  0  0
    0.0021   -0.0041    0.0020 N   0  0  0  0  0  0  0  0  0  0  0  0
    1.1408   -0.6763   -0.3881 C   0  0  0  0  0  0  0  0  0  0  0  0
    2.3607   -0.0298   -0.4134 C   0  0  0  0  0  0  0  0  0  0  0  0
    3.4910   -0.7516   -0.8267 C   0  0  0  0  0  0  0  0  0  0  0  0
    4.5888   -0.2192   -0.8671 O   0  0  0  0  0  0  0  0  0  0  0  0
    3.3406   -2.0454   -1.1786 N   0  0  0  0  0  0  0  0  0  0  0  0
    4.1340   -2.5750   -1.4787 H   0  0  0  0  0  0  0  0  0  0  0  0
    2.1258   -2.6276   -1.1275 C   0  0  0  0  0  0  0  0  0  0  0  0
    1.0661   -1.9690   -0.7470 N   0  0  0  0  0  0  0  0  0  0  0  0
    2.5002    1.4072   -0.0070 C   0  0  0  0  0  0  0  0  0  0  0  0
    1.7345    5.9121    0.8980 H   0  0  0  0  0  0  0  0  0  0  0  0
    1.7171    5.9180   -0.8819 H   0  0  0  0  0  0  0  0  0  0  0  0
    1.0011    7.2755    0.0196 H   0  0  0  0  0  0  0  0  0  0  0  0
    2.0622    4.0551   -0.0020 H   0  0  0  0  0  0  0  0  0  0  0  0
   -2.1580    1.5034    0.0220 H   0  0  0  0  0  0  0  0  0  0  0  0
   -3.6419    2.6697    0.9412 H   0  0  0  0  0  0  0  0  0  0  0  0
   -4.5162    3.9485    0.0646 H   0  0  0  0  0  0  0  0  0  0  0  0
   -3.6601    2.6759   -0.8387 H   0  0  0  0  0  0  0  0  0  0  0  0
   -0.7863   -0.5011    0.2709 H   0  0  0  0  0  0  0  0  0  0  0  0
    2.0273   -3.6655   -1.4091 H   0  0  0  0  0  0  0  0  0  0  0  0
    2.9351    1.4541    0.9914 H   0  0  0  0  0  0  0  0  0  0  0  0
    3.1641    1.9126   -0.7083 H   0  0  0  0  0  0  0  0  0  0  0  0
  1  2  1  0  0  0  0
  1 21  1  0  0  0  0
  1 22  1  0  0  0  0
  1 23  1  0  0  0  0
  2  3  1  0  0  0  0
  3  8  2  0  0  0  0
  3  4  1  0  0  0  0
  4  5  2  0  0  0  0
  4 24  1  0  0  0  0
  5 20  1  0  0  0  0
  5  6  1  0  0  0  0
  6  7  2  0  0  0  0
  6 11  1  0  0  0  0
  7  8  1  0  0  0  0
  7 25  1  0  0  0  0
  8  9  1  0  0  0  0
  9 10  1  0  0  0  0
 10 26  1  0  0  0  0
 10 27  1  0  0  0  0
 10 28  1  0  0  0  0
 11 12  1  0  0  0  0
 11 29  1  0  0  0  0
 12 19  1  0  0  0  0
 12 13  2  0  0  0  0
 13 14  1  0  0  0  0
 13 20  1  0  0  0  0
 14 15  2  0  0  0  0
 14 16  1  0  0  0  0
 16 17  1  0  0  0  0
 16 18  1  0  0  0  0
 18 19  2  0  0  0  0
 18 30  1  0  0  0  0
 20 31  1  0  0  0  0
 20 32  1  0  0  0  0
M  END
$$$$
ZINC04617935
  -OEChem-08230709403D

 32 34  0     0  0  0  0  0  0999 V2000
    1.1636    6.1977    0.0145 C   0  0  0  0  0  0  0  0  0  0  0  0
   -0.0976    5.5258    0.0246 O   0  0  0  0  0  0  0  0  0  0  0  0
   -0.0728    4.1653    0.0198 C   0  0  0  0  0  0  0  0  0  0  0  0
    1.1385    3.4955    0.0058 C   0  0  0  0  0  0  0  0  0  0  0  0
    1.1712    2.1107    0.0022 C   0  0  0  0  0  0  0  0  0  0  0  0
   -0.0169    1.3952    0.0097 C   0  0  0  0  0  0  0  0  0  0  0  0
   -1.2347    2.0637    0.0191 C   0  0  0  0  0  0  0  0  0  0  0  0
   -1.2651    3.4479    0.0295 C   0  0  0  0  0  0  0  0  0  0  0  0
   -2.4561    4.1041    0.0440 O   0  0  0  0  0  0  0  0  0  0  0  0
   -3.6387    3.3020    0.0533 C   0  0  0  0  0  0  0  0  0  0  0  0
    0.0021   -0.0041    0.0020 N   0  0  0  0  0  0  0  0  0  0  0  0
    1.1408   -0.6763   -0.3881 C   0  0  0  0  0  0  0  0  0  0  0  0
    2.3607   -0.0298   -0.4134 C   0  0  0  0  0  0  0  0  0  0  0  0
    3.4899   -0.7498   -0.8327 C   0  0  0  0  0  0  0  0  0  0  0  0
    4.5877   -0.2173   -0.8733 O   0  0  0  0  0  0  0  0  0  0  0  0
    3.3385   -2.0420   -1.1901 N   0  0  0  0  0  0  0  0  0  0  0  0
    0.1806   -2.4332   -0.7276 H   0  0  0  0  0  0  0  0  0  0  0  0
    2.1238   -2.6243   -1.1388 C   0  0  0  0  0  0  0  0  0  0  0  0
    1.0651   -1.9673   -0.7527 N   0  0  0  0  0  0  0  0  0  0  0  0
    2.5002    1.4072   -0.0070 C   0  0  0  0  0  0  0  0  0  0  0  0
    1.7345    5.9121    0.8980 H   0  0  0  0  0  0  0  0  0  0  0  0
    1.7171    5.9180   -0.8819 H   0  0  0  0  0  0  0  0  0  0  0  0
    1.0011    7.2755    0.0196 H   0  0  0  0  0  0  0  0  0  0  0  0
    2.0622    4.0551   -0.0020 H   0  0  0  0  0  0  0  0  0  0  0  0
   -2.1580    1.5034    0.0220 H   0  0  0  0  0  0  0  0  0  0  0  0
   -3.6419    2.6697    0.9412 H   0  0  0  0  0  0  0  0  0  0  0  0
   -4.5162    3.9485    0.0646 H   0  0  0  0  0  0  0  0  0  0  0  0
   -3.6601    2.6759   -0.8387 H   0  0  0  0  0  0  0  0  0  0  0  0
   -0.7863   -0.5011    0.2709 H   0  0  0  0  0  0  0  0  0  0  0  0
    2.0246   -3.6610   -1.4245 H   0  0  0  0  0  0  0  0  0  0  0  0
    2.9351    1.4541    0.9914 H   0  0  0  0  0  0  0  0  0  0  0  0
    3.1641    1.9126   -0.7083 H   0  0  0  0  0  0  0  0  0  0  0  0
  1  2  1  0  0  0  0
  1 21  1  0  0  0  0
  1 22  1  0  0  0  0
  1 23  1  0  0  0  0
  2  3  1  0  0  0  0
  3  8  2  0  0  0  0
  3  4  1  0  0  0  0
  4  5  2  0  0  0  0
  4 24  1  0  0  0  0
  5 20  1  0  0  0  0
  5  6  1  0  0  0  0
  6  7  2  0  0  0  0
  6 11  1  0  0  0  0
  7  8  1  0  0  0  0
  7 25  1  0  0  0  0
  8  9  1  0  0  0  0
  9 10  1  0  0  0  0
 10 26  1  0  0  0  0
 10 27  1  0  0  0  0
 10 28  1  0  0  0  0
 11 12  1  0  0  0  0
 11 29  1  0  0  0  0
 12 13  2  0  0  0  0
 12 19  1  0  0  0  0
 13 20  1  0  0  0  0
 13 14  1  0  0  0  0
 14 16  1  0  0  0  0
 14 15  2  0  0  0  0
 16 18  2  0  0  0  0
 17 19  1  0  0  0  0
 18 30  1  0  0  0  0
 18 19  1  0  0  0  0
 20 31  1  0  0  0  0
 20 32  1  0  0  0  0
M  END
$$$$
ZINC04617936
  -OEChem-08230709403D

 28 30  0     0  0  0  0  0  0999 V2000
   -1.7919   -6.8594   -1.9097 C   0  0  0  0  0  0  0  0  0  0  0  0
   -0.6113   -6.1473   -1.5343 O   0  0  0  0  0  0  0  0  0  0  0  0
   -0.7658   -4.8495   -1.1616 C   0  0  0  0  0  0  0  0  0  0  0  0
   -2.0282   -4.2723   -1.1566 C   0  0  0  0  0  0  0  0  0  0  0  0
   -2.1858   -2.9545   -0.7768 C   0  0  0  0  0  0  0  0  0  0  0  0
   -1.0885   -2.1994   -0.3978 C   0  0  0  0  0  0  0  0  0  0  0  0
    0.1748   -2.7729   -0.4042 C   0  0  0  0  0  0  0  0  0  0  0  0
    0.3361   -4.0990   -0.7851 C   0  0  0  0  0  0  0  0  0  0  0  0
    1.2921   -2.0222   -0.0300 N   0  0  0  0  0  0  0  0  0  0  0  0
    1.2249   -0.6449   -0.0138 C   0  0  0  0  0  0  0  0  0  0  0  0
    0.0021   -0.0041    0.0020 C   0  0  0  0  0  0  0  0  0  0  0  0
   -0.0170    1.3992    0.0097 C   0  0  0  0  0  0  0  0  0  0  0  0
   -1.0756    2.0071    0.0181 O   0  0  0  0  0  0  0  0  0  0  0  0
    1.1574    2.0634    0.0021 N   0  0  0  0  0  0  0  0  0  0  0  0
    1.1637    3.0634    0.0037 H   0  0  0  0  0  0  0  0  0  0  0  0
    2.3224    1.3849   -0.0077 C   0  0  0  0  0  0  0  0  0  0  0  0
    2.3555    0.0809   -0.0150 N   0  0  0  0  0  0  0  0  0  0  0  0
   -1.2887   -0.7680    0.0155 C   0  0  0  0  0  0  0  0  0  0  0  0
   -2.4881   -6.8764   -1.0712 H   0  0  0  0  0  0  0  0  0  0  0  0
   -2.2599   -6.3641   -2.7605 H   0  0  0  0  0  0  0  0  0  0  0  0
   -1.5284   -7.8809   -2.1839 H   0  0  0  0  0  0  0  0  0  0  0  0
   -2.8887   -4.8553   -1.4502 H   0  0  0  0  0  0  0  0  0  0  0  0
   -3.1701   -2.5101   -0.7748 H   0  0  0  0  0  0  0  0  0  0  0  0
    1.3198   -4.5446   -0.7875 H   0  0  0  0  0  0  0  0  0  0  0  0
    2.1158   -2.4702    0.2186 H   0  0  0  0  0  0  0  0  0  0  0  0
    3.2517    1.9350   -0.0098 H   0  0  0  0  0  0  0  0  0  0  0  0
   -1.7063   -0.7433    1.0220 H   0  0  0  0  0  0  0  0  0  0  0  0
   -1.9900   -0.2940   -0.6712 H   0  0  0  0  0  0  0  0  0  0  0  0
  1  2  1  0  0  0  0
  1 19  1  0  0  0  0
  1 20  1  0  0  0  0
  1 21  1  0  0  0  0
  2  3  1  0  0  0  0
  3  8  2  0  0  0  0
  3  4  1  0  0  0  0
  4  5  2  0  0  0  0
  4 22  1  0  0  0  0
  5  6  1  0  0  0  0
  5 23  1  0  0  0  0
  6 18  1  0  0  0  0
  6  7  2  0  0  0  0
  7  8  1  0  0  0  0
  7  9  1  0  0  0  0
  8 24  1  0  0  0  0
  9 10  1  0  0  0  0
  9 25  1  0  0  0  0
 10 17  1  0  0  0  0
 10 11  2  0  0  0  0
 11 12  1  0  0  0  0
 11 18  1  0  0  0  0
 12 13  2  0  0  0  0
 12 14  1  0  0  0  0
 14 15  1  0  0  0  0
 14 16  1  0  0  0  0
 16 17  2  0  0  0  0
 16 26  1  0  0  0  0
 18 27  1  0  0  0  0
 18 28  1  0  0  0  0
M  END
$$$$
ZINC04617936
  -OEChem-08230709403D

 28 30  0     0  0  0  0  0  0999 V2000
   -1.7919   -6.8594   -1.9097 C   0  0  0  0  0  0  0  0  0  0  0  0
   -0.6113   -6.1473   -1.5343 O   0  0  0  0  0  0  0  0  0  0  0  0
   -0.7658   -4.8495   -1.1616 C   0  0  0  0  0  0  0  0  0  0  0  0
   -2.0282   -4.2723   -1.1566 C   0  0  0  0  0  0  0  0  0  0  0  0
   -2.1858   -2.9545   -0.7768 C   0  0  0  0  0  0  0  0  0  0  0  0
   -1.0885   -2.1994   -0.3978 C   0  0  0  0  0  0  0  0  0  0  0  0
    0.1748   -2.7729   -0.4042 C   0  0  0  0  0  0  0  0  0  0  0  0
    0.3361   -4.0990   -0.7851 C   0  0  0  0  0  0  0  0  0  0  0  0
    1.2921   -2.0222   -0.0300 N   0  0  0  0  0  0  0  0  0  0  0  0
    1.2249   -0.6449   -0.0138 C   0  0  0  0  0  0  0  0  0  0  0  0
    0.0021   -0.0041    0.0020 C   0  0  0  0  0  0  0  0  0  0  0  0
   -0.0170    1.3992    0.0053 C   0  0  0  0  0  0  0  0  0  0  0  0
   -1.0757    2.0071    0.0136 O   0  0  0  0  0  0  0  0  0  0  0  0
    1.1573    2.0634   -0.0063 N   0  0  0  0  0  0  0  0  0  0  0  0
    3.2390   -0.3873   -0.0257 H   0  0  0  0  0  0  0  0  0  0  0  0
    2.3223    1.3850   -0.0159 C   0  0  0  0  0  0  0  0  0  0  0  0
    2.3555    0.0809   -0.0191 N   0  0  0  0  0  0  0  0  0  0  0  0
   -1.2887   -0.7680    0.0155 C   0  0  0  0  0  0  0  0  0  0  0  0
   -2.4881   -6.8764   -1.0712 H   0  0  0  0  0  0  0  0  0  0  0  0
   -2.2599   -6.3641   -2.7605 H   0  0  0  0  0  0  0  0  0  0  0  0
   -1.5284   -7.8809   -2.1839 H   0  0  0  0  0  0  0  0  0  0  0  0
   -2.8887   -4.8553   -1.4502 H   0  0  0  0  0  0  0  0  0  0  0  0
   -3.1701   -2.5101   -0.7748 H   0  0  0  0  0  0  0  0  0  0  0  0
    1.3198   -4.5446   -0.7875 H   0  0  0  0  0  0  0  0  0  0  0  0
    2.1158   -2.4702    0.2186 H   0  0  0  0  0  0  0  0  0  0  0  0
    3.2516    1.9351   -0.0210 H   0  0  0  0  0  0  0  0  0  0  0  0
   -1.7063   -0.7433    1.0220 H   0  0  0  0  0  0  0  0  0  0  0  0
   -1.9900   -0.2940   -0.6712 H   0  0  0  0  0  0  0  0  0  0  0  0
  1  2  1  0  0  0  0
  1 19  1  0  0  0  0
  1 20  1  0  0  0  0
  1 21  1  0  0  0  0
  2  3  1  0  0  0  0
  3  8  2  0  0  0  0
  3  4  1  0  0  0  0
  4  5  2  0  0  0  0
  4 22  1  0  0  0  0
  5  6  1  0  0  0  0
  5 23  1  0  0  0  0
  6 18  1  0  0  0  0
  6  7  2  0  0  0  0
  7  8  1  0  0  0  0
  7  9  1  0  0  0  0
  8 24  1  0  0  0  0
  9 10  1  0  0  0  0
  9 25  1  0  0  0  0
 10 11  2  0  0  0  0
 10 17  1  0  0  0  0
 11 18  1  0  0  0  0
 11 12  1  0  0  0  0
 12 14  1  0  0  0  0
 12 13  2  0  0  0  0
 14 16  2  0  0  0  0
 15 17  1  0  0  0  0
 16 26  1  0  0  0  0
 16 17  1  0  0  0  0
 18 27  1  0  0  0  0
 18 28  1  0  0  0  0
M  END
$$$$
ZINC04632533
  -OEChem-08230709403D

 54 58  0     0  0  0  0  0  0999 V2000
   -9.2884   -8.4274    1.6457 C   0  0  0  0  0  0  0  0  0  0  0  0
   -8.0219   -8.9239    1.8967 C   0  0  0  0  0  0  0  0  0  0  0  0
   -6.9132   -8.1268    1.6966 C   0  0  0  0  0  0  0  0  0  0  0  0
   -7.0715   -6.8191    1.2407 C   0  0  0  0  0  0  0  0  0  0  0  0
   -8.3505   -6.3224    0.9949 C   0  0  0  0  0  0  0  0  0  0  0  0
   -9.4515   -7.1304    1.1930 C   0  0  0  0  0  0  0  0  0  0  0  0
   -5.8840   -5.9577    1.0237 C   0  0  0  0  0  0  0  0  0  0  0  0
   -4.6061   -6.4602    1.2770 C   0  0  0  0  0  0  0  0  0  0  0  0
   -3.5011   -5.6632    1.0767 C   0  0  0  0  0  0  0  0  0  0  0  0
   -3.6607   -4.3586    0.6158 C   0  0  0  0  0  0  0  0  0  0  0  0
   -4.9409   -3.8431    0.3643 C   0  0  0  0  0  0  0  0  0  0  0  0
   -6.0494   -4.6532    0.5684 C   0  0  0  0  0  0  0  0  0  0  0  0
   -4.8251   -2.5296   -0.0754 N   0  0  0  0  0  0  0  0  0  0  0  0
   -3.5395   -2.1416   -0.1244 C   0  0  0  0  0  0  0  0  0  0  0  0
   -3.1354   -1.0461   -0.4718 O   0  0  0  0  0  0  0  0  0  0  0  0
   -2.7067   -3.2693    0.3135 C   0  0  0  0  0  0  0  0  0  0  0  0
   -1.3286   -3.3067    0.4154 C   0  0  0  0  0  0  0  0  0  0  0  0
   -0.5759   -2.1289    0.2307 C   0  0  0  0  0  0  0  0  0  0  0  0
    0.6870   -2.0422   -0.3394 C   0  0  0  0  0  0  0  0  0  0  0  0
    1.0486   -0.7000   -0.3217 C   0  0  0  0  0  0  0  0  0  0  0  0
    0.0312    0.0056    0.2453 C   0  0  0  0  0  0  0  0  0  0  0  0
   -0.9598   -0.8511    0.5832 N   0  0  0  0  0  0  0  0  0  0  0  0
   -1.7996   -0.6079    1.0033 H   0  0  0  0  0  0  0  0  0  0  0  0
    0.0543    1.5028    0.4430 C   0  0  0  0  0  0  0  0  0  0  0  0
    1.5027    1.9868    0.3072 C   0  0  0  0  0  0  0  0  0  0  0  0
    2.1117    1.4267   -0.9804 C   0  0  0  0  0  0  0  0  0  0  0  0
    2.3289   -0.0838   -0.8286 C   0  0  0  0  0  0  0  0  0  0  0  0
    1.5092   -3.1856   -0.8759 C   0  0  0  0  0  0  0  0  0  0  0  0
    2.3870   -3.7512    0.2422 C   0  0  0  0  0  0  0  0  0  0  0  0
    3.2092   -4.8946   -0.2943 C   0  0  0  0  0  0  0  0  0  0  0  0
    3.1039   -5.2232   -1.4522 O   0  0  0  0  0  0  0  0  0  0  0  0
  -10.1532   -9.0549    1.8033 H   0  0  0  0  0  0  0  0  0  0  0  0
   -7.9005   -9.9371    2.2503 H   0  0  0  0  0  0  0  0  0  0  0  0
   -5.9249   -8.5156    1.8926 H   0  0  0  0  0  0  0  0  0  0  0  0
   -8.4792   -5.3084    0.6461 H   0  0  0  0  0  0  0  0  0  0  0  0
  -10.4426   -6.7482    0.9983 H   0  0  0  0  0  0  0  0  0  0  0  0
   -4.4844   -7.4735    1.6303 H   0  0  0  0  0  0  0  0  0  0  0  0
   -2.5121   -6.0507    1.2722 H   0  0  0  0  0  0  0  0  0  0  0  0
   -7.0406   -4.2709    0.3740 H   0  0  0  0  0  0  0  0  0  0  0  0
   -5.5763   -1.9653   -0.3165 H   0  0  0  0  0  0  0  0  0  0  0  0
   -0.8285   -4.2380    0.6365 H   0  0  0  0  0  0  0  0  0  0  0  0
   -0.5655    1.9826   -0.3145 H   0  0  0  0  0  0  0  0  0  0  0  0
   -0.3230    1.7478    1.4358 H   0  0  0  0  0  0  0  0  0  0  0  0
    1.5199    3.0761    0.2733 H   0  0  0  0  0  0  0  0  0  0  0  0
    2.0828    1.6411    1.1629 H   0  0  0  0  0  0  0  0  0  0  0  0
    3.0677    1.9138   -1.1722 H   0  0  0  0  0  0  0  0  0  0  0  0
    1.4345    1.6145   -1.8136 H   0  0  0  0  0  0  0  0  0  0  0  0
    3.1328   -0.2693   -0.1163 H   0  0  0  0  0  0  0  0  0  0  0  0
    2.5870   -0.5165   -1.7951 H   0  0  0  0  0  0  0  0  0  0  0  0
    0.8462   -3.9668   -1.2478 H   0  0  0  0  0  0  0  0  0  0  0  0
    2.1415   -2.8284   -1.6888 H   0  0  0  0  0  0  0  0  0  0  0  0
    3.0500   -2.9700    0.6141 H   0  0  0  0  0  0  0  0  0  0  0  0
    1.7547   -4.1084    1.0551 H   0  0  0  0  0  0  0  0  0  0  0  0
    4.0586   -5.5478    0.5142 O   0  5  0  0  0  0  0  0  0  0  0  0
  1  6  2  0  0  0  0
  1  2  1  0  0  0  0
  1 32  1  0  0  0  0
  2  3  2  0  0  0  0
  2 33  1  0  0  0  0
  3  4  1  0  0  0  0
  3 34  1  0  0  0  0
  4  5  2  0  0  0  0
  4  7  1  0  0  0  0
  5  6  1  0  0  0  0
  5 35  1  0  0  0  0
  6 36  1  0  0  0  0
  7 12  2  0  0  0  0
  7  8  1  0  0  0  0
  8  9  2  0  0  0  0
  8 37  1  0  0  0  0
  9 10  1  0  0  0  0
  9 38  1  0  0  0  0
 10 16  1  0  0  0  0
 10 11  2  0  0  0  0
 11 12  1  0  0  0  0
 11 13  1  0  0  0  0
 12 39  1  0  0  0  0
 13 14  1  0  0  0  0
 13 40  1  0  0  0  0
 14 15  2  0  0  0  0
 14 16  1  0  0  0  0
 16 17  2  0  0  0  0
 17 18  1  0  0  0  0
 17 41  1  0  0  0  0
 18 22  1  0  0  0  0
 18 19  2  0  0  0  0
 19 20  1  0  0  0  0
 19 28  1  0  0  0  0
 20 27  1  0  0  0  0
 20 21  2  0  0  0  0
 21 22  1  0  0  0  0
 21 24  1  0  0  0  0
 22 23  1  0  0  0  0
 24 25  1  0  0  0  0
 24 42  1  0  0  0  0
 24 43  1  0  0  0  0
 25 26  1  0  0  0  0
 25 44  1  0  0  0  0
 25 45  1  0  0  0  0
 26 27  1  0  0  0  0
 26 46  1  0  0  0  0
 26 47  1  0  0  0  0
 27 48  1  0  0  0  0
 27 49  1  0  0  0  0
 28 29  1  0  0  0  0
 28 50  1  0  0  0  0
 28 51  1  0  0  0  0
 29 30  1  0  0  0  0
 29 52  1  0  0  0  0
 29 53  1  0  0  0  0
 30 31  2  0  0  0  0
 30 54  1  0  0  0  0
M  CHG  1  54  -1
M  END
$$$$
ZINC04632535
  -OEChem-08230709403D

 58 62  0     0  0  0  0  0  0999 V2000
    2.1484   -0.3360   -0.0204 C   0  0  0  0  0  0  0  0  0  0  0  0
    2.2218    1.0903   -0.0683 O   0  0  0  0  0  0  0  0  0  0  0  0
    1.0654    1.7748    0.1347 C   0  0  0  0  0  0  0  0  0  0  0  0
   -0.1158    1.0859    0.3751 C   0  0  0  0  0  0  0  0  0  0  0  0
   -1.2953    1.7777    0.5769 C   0  0  0  0  0  0  0  0  0  0  0  0
   -1.3036    3.1580    0.5511 C   0  0  0  0  0  0  0  0  0  0  0  0
   -0.1220    3.8573    0.3108 C   0  0  0  0  0  0  0  0  0  0  0  0
    1.0656    3.1593    0.1022 C   0  0  0  0  0  0  0  0  0  0  0  0
   -0.1289    5.3400    0.2778 C   0  0  0  0  0  0  0  0  0  0  0  0
    1.0582    6.0346    0.0371 C   0  0  0  0  0  0  0  0  0  0  0  0
    1.0557    7.4113    0.0053 C   0  0  0  0  0  0  0  0  0  0  0  0
   -0.1323    8.1080    0.2136 C   0  0  0  0  0  0  0  0  0  0  0  0
   -1.3298    7.4189    0.4561 C   0  0  0  0  0  0  0  0  0  0  0  0
   -1.3194    6.0311    0.4813 C   0  0  0  0  0  0  0  0  0  0  0  0
   -2.3577    8.3383    0.6296 N   0  0  0  0  0  0  0  0  0  0  0  0
   -1.9098    9.6001    0.5159 C   0  0  0  0  0  0  0  0  0  0  0  0
   -2.5827   10.6103    0.6197 O   0  0  0  0  0  0  0  0  0  0  0  0
   -0.4674    9.5484    0.2440 C   0  0  0  0  0  0  0  0  0  0  0  0
    0.3915   10.6153    0.0572 C   0  0  0  0  0  0  0  0  0  0  0  0
   -0.1216   11.9252   -0.0369 C   0  0  0  0  0  0  0  0  0  0  0  0
    0.4917   13.0825    0.4235 C   0  0  0  0  0  0  0  0  0  0  0  0
   -0.3593   14.1397    0.1223 C   0  0  0  0  0  0  0  0  0  0  0  0
   -1.4622   13.6332   -0.4953 C   0  0  0  0  0  0  0  0  0  0  0  0
   -1.3280   12.2910   -0.5982 N   0  0  0  0  0  0  0  0  0  0  0  0
   -1.9719   11.6868   -0.9997 H   0  0  0  0  0  0  0  0  0  0  0  0
   -2.6225   14.4764   -0.9686 C   0  0  0  0  0  0  0  0  0  0  0  0
   -2.5391   15.8442   -0.2811 C   0  0  0  0  0  0  0  0  0  0  0  0
   -1.1277   16.4144   -0.4454 C   0  0  0  0  0  0  0  0  0  0  0  0
   -0.1468   15.6050    0.4115 C   0  0  0  0  0  0  0  0  0  0  0  0
    1.8272   13.1753    1.1156 C   0  0  0  0  0  0  0  0  0  0  0  0
    2.9295   13.3708    0.0727 C   0  0  0  0  0  0  0  0  0  0  0  0
    4.2650   13.4636    0.7647 C   0  0  0  0  0  0  0  0  0  0  0  0
    4.3286   13.3819    1.9685 O   0  0  0  0  0  0  0  0  0  0  0  0
    1.7914   -0.6487    0.9608 H   0  0  0  0  0  0  0  0  0  0  0  0
    1.4598   -0.6903   -0.7875 H   0  0  0  0  0  0  0  0  0  0  0  0
    3.1380   -0.7569   -0.1981 H   0  0  0  0  0  0  0  0  0  0  0  0
   -0.1139    0.0062    0.4001 H   0  0  0  0  0  0  0  0  0  0  0  0
   -2.2123    1.2370    0.7591 H   0  0  0  0  0  0  0  0  0  0  0  0
   -2.2261    3.6957    0.7132 H   0  0  0  0  0  0  0  0  0  0  0  0
    1.9839    3.6964   -0.0840 H   0  0  0  0  0  0  0  0  0  0  0  0
    1.9781    5.4923   -0.1244 H   0  0  0  0  0  0  0  0  0  0  0  0
    1.9731    7.9498   -0.1811 H   0  0  0  0  0  0  0  0  0  0  0  0
   -2.2348    5.4875    0.6629 H   0  0  0  0  0  0  0  0  0  0  0  0
   -3.2805    8.0996    0.8093 H   0  0  0  0  0  0  0  0  0  0  0  0
    1.4555   10.4455   -0.0165 H   0  0  0  0  0  0  0  0  0  0  0  0
   -2.5661   14.6048   -2.0495 H   0  0  0  0  0  0  0  0  0  0  0  0
   -3.5615   13.9894   -0.7054 H   0  0  0  0  0  0  0  0  0  0  0  0
   -3.2604   16.5235   -0.7354 H   0  0  0  0  0  0  0  0  0  0  0  0
   -2.7640   15.7319    0.7795 H   0  0  0  0  0  0  0  0  0  0  0  0
   -0.8310   16.3540   -1.4925 H   0  0  0  0  0  0  0  0  0  0  0  0
   -1.1170   17.4560   -0.1242 H   0  0  0  0  0  0  0  0  0  0  0  0
    0.8766   15.8840    0.1606 H   0  0  0  0  0  0  0  0  0  0  0  0
   -0.3330   15.8016    1.4674 H   0  0  0  0  0  0  0  0  0  0  0  0
    1.8225   14.0218    1.8023 H   0  0  0  0  0  0  0  0  0  0  0  0
    2.0126   12.2568    1.6723 H   0  0  0  0  0  0  0  0  0  0  0  0
    2.9342   12.5243   -0.6140 H   0  0  0  0  0  0  0  0  0  0  0  0
    2.7442   14.2893   -0.4841 H   0  0  0  0  0  0  0  0  0  0  0  0
    5.3839   13.6372    0.0437 O   0  5  0  0  0  0  0  0  0  0  0  0
  1  2  1  0  0  0  0
  1 34  1  0  0  0  0
  1 35  1  0  0  0  0
  1 36  1  0  0  0  0
  2  3  1  0  0  0  0
  3  8  2  0  0  0  0
  3  4  1  0  0  0  0
  4  5  2  0  0  0  0
  4 37  1  0  0  0  0
  5  6  1  0  0  0  0
  5 38  1  0  0  0  0
  6  7  2  0  0  0  0
  6 39  1  0  0  0  0
  7  8  1  0  0  0  0
  7  9  1  0  0  0  0
  8 40  1  0  0  0  0
  9 14  2  0  0  0  0
  9 10  1  0  0  0  0
 10 11  2  0  0  0  0
 10 41  1  0  0  0  0
 11 12  1  0  0  0  0
 11 42  1  0  0  0  0
 12 18  1  0  0  0  0
 12 13  2  0  0  0  0
 13 14  1  0  0  0  0
 13 15  1  0  0  0  0
 14 43  1  0  0  0  0
 15 16  1  0  0  0  0
 15 44  1  0  0  0  0
 16 17  2  0  0  0  0
 16 18  1  0  0  0  0
 18 19  2  0  0  0  0
 19 20  1  0  0  0  0
 19 45  1  0  0  0  0
 20 24  1  0  0  0  0
 20 21  2  0  0  0  0
 21 22  1  0  0  0  0
 21 30  1  0  0  0  0
 22 29  1  0  0  0  0
 22 23  2  0  0  0  0
 23 24  1  0  0  0  0
 23 26  1  0  0  0  0
 24 25  1  0  0  0  0
 26 27  1  0  0  0  0
 26 46  1  0  0  0  0
 26 47  1  0  0  0  0
 27 28  1  0  0  0  0
 27 48  1  0  0  0  0
 27 49  1  0  0  0  0
 28 29  1  0  0  0  0
 28 50  1  0  0  0  0
 28 51  1  0  0  0  0
 29 52  1  0  0  0  0
 29 53  1  0  0  0  0
 30 31  1  0  0  0  0
 30 54  1  0  0  0  0
 30 55  1  0  0  0  0
 31 32  1  0  0  0  0
 31 56  1  0  0  0  0
 31 57  1  0  0  0  0
 32 33  2  0  0  0  0
 32 58  1  0  0  0  0
M  CHG  1  58  -1
M  END
$$$$
