ZINC01545762
  -OEChem-08230709403D

 49 51  0     1  0  0  0  0  0999 V2000
   -7.0267    9.7760   -3.6718 C   0  0  0  0  0  0  0  0  0  0  0  0
   -6.9165    8.3181   -3.7637 N   0  0  3  0  0  0  0  0  0  0  0  0
   -6.8469    7.5483   -2.6005 C   0  0  0  0  0  0  0  0  0  0  0  0
   -7.8868    7.5840   -1.6792 C   0  0  0  0  0  0  0  0  0  0  0  0
   -7.8175    6.8230   -0.5287 C   0  0  0  0  0  0  0  0  0  0  0  0
   -6.7146    6.0247   -0.2902 C   0  0  0  0  0  0  0  0  0  0  0  0
   -5.6730    5.9854   -1.2064 C   0  0  0  0  0  0  0  0  0  0  0  0
   -5.7362    6.7516   -2.3598 C   0  0  0  0  0  0  0  0  0  0  0  0
   -4.5892    5.2003   -0.9702 O   0  0  0  0  0  0  0  0  0  0  0  0
   -4.5888    4.4423    0.2412 C   0  0  0  0  0  0  0  0  0  0  0  0
   -3.2977    3.6263    0.3318 C   0  0  0  0  0  0  0  0  0  0  0  0
   -2.1531    4.5341    0.4423 N   0  0  0  0  0  0  0  0  0  0  0  0
   -0.8637    4.0195    0.5384 C   0  0  0  0  0  0  0  0  0  0  0  0
   -0.6398    2.6429    0.5259 C   0  0  0  0  0  0  0  0  0  0  0  0
    0.6527    2.1733    0.6283 C   0  0  0  0  0  0  0  0  0  0  0  0
    1.5001    4.3173    0.7374 C   0  0  0  0  0  0  0  0  0  0  0  0
    0.2389    4.8671    0.6443 C   0  0  0  0  0  0  0  0  0  0  0  0
   -6.8744    7.5828   -5.2470 S   0  0  0  0  0  0  0  0  0  0  0  0
   -6.2825    8.5121   -6.1443 O   0  0  0  0  0  0  0  0  0  0  0  0
   -6.3447    6.2806   -5.0398 O   0  0  0  0  0  0  0  0  0  0  0  0
   -8.5433    7.3702   -5.7706 C   0  0  0  0  0  0  0  0  0  0  0  0
   -9.2261    6.2118   -5.4499 C   0  0  0  0  0  0  0  0  0  0  0  0
  -10.5371    6.0472   -5.8562 C   0  0  0  0  0  0  0  0  0  0  0  0
  -11.1619    7.0364   -6.5924 C   0  0  0  0  0  0  0  0  0  0  0  0
  -10.4773    8.1924   -6.9180 C   0  0  0  0  0  0  0  0  0  0  0  0
   -9.1681    8.3594   -6.5068 C   0  0  0  0  0  0  0  0  0  0  0  0
   -6.0294   10.2157   -3.6586 H   0  0  0  0  0  0  0  0  0  0  0  0
   -7.5789   10.1537   -4.5324 H   0  0  0  0  0  0  0  0  0  0  0  0
   -7.5538   10.0435   -2.7560 H   0  0  0  0  0  0  0  0  0  0  0  0
   -8.7493    8.2074   -1.8628 H   0  0  0  0  0  0  0  0  0  0  0  0
   -8.6265    6.8520    0.1862 H   0  0  0  0  0  0  0  0  0  0  0  0
   -6.6633    5.4311    0.6105 H   0  0  0  0  0  0  0  0  0  0  0  0
   -4.9243    6.7259   -3.0715 H   0  0  0  0  0  0  0  0  0  0  0  0
   -5.4456    3.7685    0.2484 H   0  0  0  0  0  0  0  0  0  0  0  0
   -4.6515    5.1190    1.0933 H   0  0  0  0  0  0  0  0  0  0  0  0
   -3.1910    3.0144   -0.5639 H   0  0  0  0  0  0  0  0  0  0  0  0
   -3.3362    2.9816    1.2098 H   0  0  0  0  0  0  0  0  0  0  0  0
   -2.2941    5.4938    0.4485 H   0  0  0  0  0  0  0  0  0  0  0  0
   -1.4675    1.9542    0.4413 H   0  0  0  0  0  0  0  0  0  0  0  0
    0.8351    1.1089    0.6232 H   0  0  0  0  0  0  0  0  0  0  0  0
    2.3597    4.9659    0.8194 H   0  0  0  0  0  0  0  0  0  0  0  0
    0.1069    5.9389    0.6530 H   0  0  0  0  0  0  0  0  0  0  0  0
   -8.7365    5.4370   -4.8785 H   0  0  0  0  0  0  0  0  0  0  0  0
  -11.0721    5.1442   -5.6015 H   0  0  0  0  0  0  0  0  0  0  0  0
  -12.1849    6.9063   -6.9130 H   0  0  0  0  0  0  0  0  0  0  0  0
  -10.9654    8.9652   -7.4932 H   0  0  0  0  0  0  0  0  0  0  0  0
   -8.6332    9.2625   -6.7612 H   0  0  0  0  0  0  0  0  0  0  0  0
    1.7451    2.9784    0.7327 N   0  3  0  0  0  0  0  0  0  0  0  0
    2.6964    2.5988    0.8036 H   0  0  0  0  0  0  0  0  0  0  0  0
  1  2  1  0  0  0  0
  1 27  1  0  0  0  0
  1 28  1  0  0  0  0
  1 29  1  0  0  0  0
  2  3  1  0  0  0  0
  2 18  1  0  0  0  0
  3  8  2  0  0  0  0
  3  4  1  0  0  0  0
  4  5  2  0  0  0  0
  4 30  1  0  0  0  0
  5  6  1  0  0  0  0
  5 31  1  0  0  0  0
  6  7  2  0  0  0  0
  6 32  1  0  0  0  0
  7  8  1  0  0  0  0
  7  9  1  0  0  0  0
  8 33  1  0  0  0  0
  9 10  1  0  0  0  0
 10 11  1  0  0  0  0
 10 34  1  0  0  0  0
 10 35  1  0  0  0  0
 11 12  1  0  0  0  0
 11 36  1  0  0  0  0
 11 37  1  0  0  0  0
 12 13  1  0  0  0  0
 12 38  1  0  0  0  0
 13 17  2  0  0  0  0
 13 14  1  0  0  0  0
 14 15  2  0  0  0  0
 14 39  1  0  0  0  0
 15 40  1  0  0  0  0
 15 48  1  0  0  0  0
 16 17  1  0  0  0  0
 16 41  1  0  0  0  0
 16 48  2  0  0  0  0
 17 42  1  0  0  0  0
 18 19  2  0  0  0  0
 18 20  2  0  0  0  0
 18 21  1  0  0  0  0
 21 26  2  0  0  0  0
 21 22  1  0  0  0  0
 22 23  2  0  0  0  0
 22 43  1  0  0  0  0
 23 24  1  0  0  0  0
 23 44  1  0  0  0  0
 24 25  2  0  0  0  0
 24 45  1  0  0  0  0
 25 26  1  0  0  0  0
 25 46  1  0  0  0  0
 26 47  1  0  0  0  0
 48 49  1  0  0  0  0
M  CHG  1  48   1
M  END
$$$$
ZINC02043468
  -OEChem-08230709403D

 62 65  0     1  0  0  0  0  0999 V2000
    3.6533   12.6563   -0.1343 H   0  0  0  0  0  0  0  0  0  0  0  0
    1.6433   12.9766   -0.0902 C   0  0  0  0  0  0  0  0  0  0  0  0
    0.3562   12.4671   -0.6159 C   0  0  0  0  0  0  0  0  0  0  0  0
   -0.8410   13.0867   -0.2578 C   0  0  0  0  0  0  0  0  0  0  0  0
   -2.0370   12.6077   -0.7512 C   0  0  0  0  0  0  0  0  0  0  0  0
   -2.0500   11.5184   -1.6044 C   0  0  0  0  0  0  0  0  0  0  0  0
   -0.8666   10.8962   -1.9586 C   0  0  0  0  0  0  0  0  0  0  0  0
    0.3362   11.3661   -1.4715 C   0  0  0  0  0  0  0  0  0  0  0  0
   -0.8900    9.7065   -2.8834 C   0  0  0  0  0  0  0  0  0  0  0  0
   -1.0140    8.4229   -2.0600 C   0  0  1  0  0  0  0  0  0  0  0  0
   -1.9173    8.4673   -1.4518 H   0  0  0  0  0  0  0  0  0  0  0  0
   -1.0901    7.2371   -2.9868 C   0  0  0  0  0  0  0  0  0  0  0  0
   -0.1180    6.5299   -3.1480 O   0  0  0  0  0  0  0  0  0  0  0  0
   -2.2383    6.9622   -3.6367 N   0  0  0  0  0  0  0  0  0  0  0  0
   -3.3925    7.8694   -3.5465 C   0  0  0  0  0  0  0  0  0  0  0  0
   -4.6274    7.0569   -3.1601 C   0  0  0  0  0  0  0  0  0  0  0  0
   -3.6496    5.0123   -4.0232 C   0  0  0  0  0  0  0  0  0  0  0  0
   -2.3727    5.7441   -4.4498 C   0  0  0  0  0  0  0  0  0  0  0  0
    0.1556    8.2871   -1.1883 N   0  0  0  0  0  0  0  0  0  0  0  0
   -0.0079    7.6204    0.3187 S   0  0  0  0  0  0  0  0  0  0  0  0
   -1.1088    8.2744    0.9349 O   0  0  0  0  0  0  0  0  0  0  0  0
    1.2894    7.6031    0.8982 O   0  0  0  0  0  0  0  0  0  0  0  0
   -0.4823    5.9382    0.0955 C   0  0  0  0  0  0  0  0  0  0  0  0
    0.5009    4.9559   -0.0094 C   0  0  0  0  0  0  0  0  0  0  0  0
    0.1686    3.6475   -0.1823 C   0  0  0  0  0  0  0  0  0  0  0  0
   -1.1853    3.2779   -0.2565 C   0  0  0  0  0  0  0  0  0  0  0  0
   -1.5672    1.9372   -0.4350 C   0  0  0  0  0  0  0  0  0  0  0  0
   -2.8881    1.6167   -0.5029 C   0  0  0  0  0  0  0  0  0  0  0  0
   -3.8711    2.5997   -0.4034 C   0  0  0  0  0  0  0  0  0  0  0  0
   -3.5389    3.9073   -0.2244 C   0  0  0  0  0  0  0  0  0  0  0  0
   -2.1849    4.2768   -0.1500 C   0  0  0  0  0  0  0  0  0  0  0  0
   -1.8031    5.6176    0.0276 C   0  0  0  0  0  0  0  0  0  0  0  0
    1.6599   14.0646    0.7551 N   0  0  0  0  0  0  0  0  0  0  0  0
   -0.8317   13.9400    0.4042 H   0  0  0  0  0  0  0  0  0  0  0  0
   -2.9647   13.0864   -0.4744 H   0  0  0  0  0  0  0  0  0  0  0  0
   -2.9884   11.1497   -1.9916 H   0  0  0  0  0  0  0  0  0  0  0  0
    1.2599   10.8820   -1.7520 H   0  0  0  0  0  0  0  0  0  0  0  0
    0.0327    9.6787   -3.4631 H   0  0  0  0  0  0  0  0  0  0  0  0
   -1.7413    9.7883   -3.5592 H   0  0  0  0  0  0  0  0  0  0  0  0
   -3.2031    8.6285   -2.7875 H   0  0  0  0  0  0  0  0  0  0  0  0
   -3.5594    8.3468   -4.5120 H   0  0  0  0  0  0  0  0  0  0  0  0
   -5.5107    7.6943   -3.1996 H   0  0  0  0  0  0  0  0  0  0  0  0
   -4.5028    6.6696   -2.1489 H   0  0  0  0  0  0  0  0  0  0  0  0
   -3.8239    4.1668   -4.6887 H   0  0  0  0  0  0  0  0  0  0  0  0
   -3.5386    4.6535   -3.0000 H   0  0  0  0  0  0  0  0  0  0  0  0
   -2.4397    6.0131   -5.5040 H   0  0  0  0  0  0  0  0  0  0  0  0
   -1.5093    5.0987   -4.2880 H   0  0  0  0  0  0  0  0  0  0  0  0
    1.0258    8.5878   -1.4938 H   0  0  0  0  0  0  0  0  0  0  0  0
    1.5421    5.2371    0.0478 H   0  0  0  0  0  0  0  0  0  0  0  0
    0.9413    2.8972   -0.2622 H   0  0  0  0  0  0  0  0  0  0  0  0
   -0.8163    1.1653   -0.5180 H   0  0  0  0  0  0  0  0  0  0  0  0
   -3.1789    0.5857   -0.6403 H   0  0  0  0  0  0  0  0  0  0  0  0
   -4.9122    2.3190   -0.4650 H   0  0  0  0  0  0  0  0  0  0  0  0
   -4.3114    4.6577   -0.1452 H   0  0  0  0  0  0  0  0  0  0  0  0
   -2.5540    6.3893    0.1104 H   0  0  0  0  0  0  0  0  0  0  0  0
    0.8285   14.4968    1.0057 H   0  0  0  0  0  0  0  0  0  0  0  0
    2.5031   14.3984    1.0995 H   0  0  0  0  0  0  0  0  0  0  0  0
    2.7422   12.3430   -0.4697 N   0  3  0  0  0  0  0  0  0  0  0  0
    2.6774   11.5363   -1.1017 H   0  0  0  0  0  0  0  0  0  0  0  0
   -4.7982    5.9359   -4.1051 N   0  3  0  0  0  0  0  0  0  0  0  0
   -4.8667    6.3064   -5.0603 H   0  0  0  0  0  0  0  0  0  0  0  0
   -5.6589    5.4264   -3.8732 H   0  0  0  0  0  0  0  0  0  0  0  0
  1 58  1  0  0  0  0
  2  3  1  0  0  0  0
  2 33  1  0  0  0  0
  2 58  2  0  0  0  0
  3  8  2  0  0  0  0
  3  4  1  0  0  0  0
  4  5  2  0  0  0  0
  4 34  1  0  0  0  0
  5  6  1  0  0  0  0
  5 35  1  0  0  0  0
  6  7  2  0  0  0  0
  6 36  1  0  0  0  0
  7  8  1  0  0  0  0
  7  9  1  0  0  0  0
  8 37  1  0  0  0  0
  9 10  1  0  0  0  0
  9 38  1  0  0  0  0
  9 39  1  0  0  0  0
 10 11  1  0  0  0  0
 10 12  1  0  0  0  0
 10 19  1  0  0  0  0
 12 13  2  0  0  0  0
 12 14  1  0  0  0  0
 14 18  1  0  0  0  0
 14 15  1  0  0  0  0
 15 16  1  0  0  0  0
 15 40  1  0  0  0  0
 15 41  1  0  0  0  0
 16 42  1  0  0  0  0
 16 43  1  0  0  0  0
 16 60  1  0  0  0  0
 17 18  1  0  0  0  0
 17 44  1  0  0  0  0
 17 45  1  0  0  0  0
 17 60  1  0  0  0  0
 18 46  1  0  0  0  0
 18 47  1  0  0  0  0
 19 20  1  0  0  0  0
 19 48  1  0  0  0  0
 20 21  2  0  0  0  0
 20 22  2  0  0  0  0
 20 23  1  0  0  0  0
 23 32  2  0  0  0  0
 23 24  1  0  0  0  0
 24 25  2  0  0  0  0
 24 49  1  0  0  0  0
 25 26  1  0  0  0  0
 25 50  1  0  0  0  0
 26 31  2  0  0  0  0
 26 27  1  0  0  0  0
 27 28  2  0  0  0  0
 27 51  1  0  0  0  0
 28 29  1  0  0  0  0
 28 52  1  0  0  0  0
 29 30  2  0  0  0  0
 29 53  1  0  0  0  0
 30 31  1  0  0  0  0
 30 54  1  0  0  0  0
 31 32  1  0  0  0  0
 32 55  1  0  0  0  0
 33 56  1  0  0  0  0
 33 57  1  0  0  0  0
 58 59  1  0  0  0  0
 60 61  1  0  0  0  0
 60 62  1  0  0  0  0
M  CHG  2  58   1  60   1
M  END
$$$$
ZINC02047416
  -OEChem-08230709403D

 59 61  0     1  0  0  0  0  0999 V2000
    6.5095    6.1514    2.1422 H   0  0  0  0  0  0  0  0  0  0  0  0
    7.7996    4.8659    1.2323 C   0  0  0  0  0  0  0  0  0  0  0  0
    7.8822    3.5308    0.5972 C   0  0  0  0  0  0  0  0  0  0  0  0
    9.0965    3.0721    0.0867 C   0  0  0  0  0  0  0  0  0  0  0  0
    9.1672    1.8273   -0.5039 C   0  0  0  0  0  0  0  0  0  0  0  0
    8.0365    1.0346   -0.5911 C   0  0  0  0  0  0  0  0  0  0  0  0
    6.8296    1.4837   -0.0864 C   0  0  0  0  0  0  0  0  0  0  0  0
    6.7451    2.7293    0.5021 C   0  0  0  0  0  0  0  0  0  0  0  0
    5.6029    0.6140   -0.1849 C   0  0  0  0  0  0  0  0  0  0  0  0
    5.5030   -0.2698    1.0602 C   0  0  1  0  0  0  0  0  0  0  0  0
    5.5268    0.3558    1.9525 H   0  0  0  0  0  0  0  0  0  0  0  0
    4.2109   -1.0444    1.0240 C   0  0  0  0  0  0  0  0  0  0  0  0
    4.2289   -2.2468    0.8661 O   0  0  0  0  0  0  0  0  0  0  0  0
    3.0352   -0.4011    1.1672 N   0  0  0  0  0  0  0  0  0  0  0  0
    2.9998    1.0446    1.4266 C   0  0  0  0  0  0  0  0  0  0  0  0
    2.1549    1.3004    2.6786 C   0  0  0  0  0  0  0  0  0  0  0  0
    0.7766    0.6601    2.4986 C   0  0  0  0  0  0  0  0  0  0  0  0
    0.9338   -0.8520    2.3226 C   0  0  0  0  0  0  0  0  0  0  0  0
    1.7647   -1.1322    1.0665 C   0  0  0  0  0  0  0  0  0  0  0  0
    6.6316   -1.2034    1.0881 N   0  0  0  0  0  0  0  0  0  0  0  0
    7.3110   -1.6381    2.5344 S   0  0  0  0  0  0  0  0  0  0  0  0
    8.3489   -2.5612    2.2344 O   0  0  0  0  0  0  0  0  0  0  0  0
    7.5462   -0.4337    3.2509 O   0  0  0  0  0  0  0  0  0  0  0  0
    6.0888   -2.5304    3.4370 C   0  0  0  0  0  0  0  0  0  0  0  0
    5.2272   -1.8586    4.2838 C   0  0  0  0  0  0  0  0  0  0  0  0
    4.2655   -2.5581    4.9885 C   0  0  0  0  0  0  0  0  0  0  0  0
    4.1715   -3.9307    4.8537 C   0  0  0  0  0  0  0  0  0  0  0  0
    5.0363   -4.6031    4.0104 C   0  0  0  0  0  0  0  0  0  0  0  0
    5.9951   -3.9030    3.3025 C   0  0  0  0  0  0  0  0  0  0  0  0
    3.1262   -4.6939    5.6255 C   0  0  0  0  0  0  0  0  0  0  0  0
    8.9237    5.6578    1.3201 N   0  0  0  0  0  0  0  0  0  0  0  0
    9.9796    3.6903    0.1535 H   0  0  0  0  0  0  0  0  0  0  0  0
   10.1068    1.4710   -0.8995 H   0  0  0  0  0  0  0  0  0  0  0  0
    8.0966    0.0610   -1.0546 H   0  0  0  0  0  0  0  0  0  0  0  0
    5.8012    3.0807    0.8919 H   0  0  0  0  0  0  0  0  0  0  0  0
    5.6738   -0.0152   -1.0721 H   0  0  0  0  0  0  0  0  0  0  0  0
    4.7158    1.2434   -0.2557 H   0  0  0  0  0  0  0  0  0  0  0  0
    2.5546    1.5579    0.5743 H   0  0  0  0  0  0  0  0  0  0  0  0
    4.0133    1.4119    1.5884 H   0  0  0  0  0  0  0  0  0  0  0  0
    2.0406    2.3741    2.8273 H   0  0  0  0  0  0  0  0  0  0  0  0
    2.6487    0.8631    3.5463 H   0  0  0  0  0  0  0  0  0  0  0  0
    0.1650    0.8617    3.3781 H   0  0  0  0  0  0  0  0  0  0  0  0
    0.2934    1.0802    1.6164 H   0  0  0  0  0  0  0  0  0  0  0  0
    1.4391   -1.2691    3.1937 H   0  0  0  0  0  0  0  0  0  0  0  0
   -0.0497   -1.3102    2.2179 H   0  0  0  0  0  0  0  0  0  0  0  0
    1.2189   -0.7963    0.1848 H   0  0  0  0  0  0  0  0  0  0  0  0
    1.9633   -2.2012    0.9907 H   0  0  0  0  0  0  0  0  0  0  0  0
    6.9809   -1.5671    0.2595 H   0  0  0  0  0  0  0  0  0  0  0  0
    5.3033   -0.7867    4.3924 H   0  0  0  0  0  0  0  0  0  0  0  0
    3.5897   -2.0328    5.6471 H   0  0  0  0  0  0  0  0  0  0  0  0
    4.9629   -5.6754    3.9050 H   0  0  0  0  0  0  0  0  0  0  0  0
    6.6710   -4.4285    2.6439 H   0  0  0  0  0  0  0  0  0  0  0  0
    3.5364   -4.9998    6.5879 H   0  0  0  0  0  0  0  0  0  0  0  0
    2.2566   -4.0568    5.7872 H   0  0  0  0  0  0  0  0  0  0  0  0
    2.8294   -5.5771    5.0597 H   0  0  0  0  0  0  0  0  0  0  0  0
    9.7692    5.3407    0.9658 H   0  0  0  0  0  0  0  0  0  0  0  0
    8.8696    6.5324    1.7362 H   0  0  0  0  0  0  0  0  0  0  0  0
    6.6172    5.2403    1.6960 N   0  3  0  0  0  0  0  0  0  0  0  0
    5.8088    4.6137    1.6066 H   0  0  0  0  0  0  0  0  0  0  0  0
  1 58  1  0  0  0  0
  2  3  1  0  0  0  0
  2 31  1  0  0  0  0
  2 58  2  0  0  0  0
  3  8  2  0  0  0  0
  3  4  1  0  0  0  0
  4  5  2  0  0  0  0
  4 32  1  0  0  0  0
  5  6  1  0  0  0  0
  5 33  1  0  0  0  0
  6  7  2  0  0  0  0
  6 34  1  0  0  0  0
  7  8  1  0  0  0  0
  7  9  1  0  0  0  0
  8 35  1  0  0  0  0
  9 10  1  0  0  0  0
  9 36  1  0  0  0  0
  9 37  1  0  0  0  0
 10 11  1  0  0  0  0
 10 12  1  0  0  0  0
 10 20  1  0  0  0  0
 12 13  2  0  0  0  0
 12 14  1  0  0  0  0
 14 19  1  0  0  0  0
 14 15  1  0  0  0  0
 15 16  1  0  0  0  0
 15 38  1  0  0  0  0
 15 39  1  0  0  0  0
 16 17  1  0  0  0  0
 16 40  1  0  0  0  0
 16 41  1  0  0  0  0
 17 18  1  0  0  0  0
 17 42  1  0  0  0  0
 17 43  1  0  0  0  0
 18 19  1  0  0  0  0
 18 44  1  0  0  0  0
 18 45  1  0  0  0  0
 19 46  1  0  0  0  0
 19 47  1  0  0  0  0
 20 21  1  0  0  0  0
 20 48  1  0  0  0  0
 21 22  2  0  0  0  0
 21 23  2  0  0  0  0
 21 24  1  0  0  0  0
 24 29  2  0  0  0  0
 24 25  1  0  0  0  0
 25 26  2  0  0  0  0
 25 49  1  0  0  0  0
 26 27  1  0  0  0  0
 26 50  1  0  0  0  0
 27 28  2  0  0  0  0
 27 30  1  0  0  0  0
 28 29  1  0  0  0  0
 28 51  1  0  0  0  0
 29 52  1  0  0  0  0
 30 53  1  0  0  0  0
 30 54  1  0  0  0  0
 30 55  1  0  0  0  0
 31 56  1  0  0  0  0
 31 57  1  0  0  0  0
 58 59  1  0  0  0  0
M  CHG  1  58   1
M  END
$$$$
ZINC03814029
  -OEChem-08230709403D

 62 64  0     0  0  0  0  0  0999 V2000
   -3.5431    1.7401   -2.4488 C   0  0  0  0  0  0  0  0  0  0  0  0
   -4.1308    2.2256   -1.1488 C   0  0  0  0  0  0  0  0  0  0  0  0
   -5.1705    3.0899   -1.1675 C   0  0  0  0  0  0  0  0  0  0  0  0
   -5.7248    3.5478    0.0368 C   0  0  0  0  0  0  0  0  0  0  0  0
   -5.2011    3.1105    1.2222 C   0  0  0  0  0  0  0  0  0  0  0  0
   -4.1181    2.2043    1.2044 C   0  0  0  0  0  0  0  0  0  0  0  0
   -3.6421    1.8003    2.2534 O   0  0  0  0  0  0  0  0  0  0  0  0
   -3.6084    1.7894    0.0289 N   0  0  0  0  0  0  0  0  0  0  0  0
   -2.4820    0.8526    0.0185 C   0  0  0  0  0  0  0  0  0  0  0  0
   -1.1873    1.6238    0.0165 C   0  0  0  0  0  0  0  0  0  0  0  0
   -1.2037    2.8365    0.0232 O   0  0  0  0  0  0  0  0  0  0  0  0
   -0.0111    0.9658    0.0074 N   0  0  0  0  0  0  0  0  0  0  0  0
    1.2475    1.7155   -0.0006 C   0  0  0  0  0  0  0  0  0  0  0  0
    2.4238    0.7372   -0.0171 C   0  0  0  0  0  0  0  0  0  0  0  0
    2.4385   -0.0646    1.2859 C   0  0  0  0  0  0  0  0  0  0  0  0
    3.6148   -1.0429    1.2694 C   0  0  0  0  0  0  0  0  0  0  0  0
    4.9245   -0.2635    1.1353 C   0  0  0  0  0  0  0  0  0  0  0  0
    4.9098    0.5383   -0.1677 C   0  0  0  0  0  0  0  0  0  0  0  0
    3.7335    1.5166   -0.1512 C   0  0  0  0  0  0  0  0  0  0  0  0
   -5.7360    3.5518    2.4389 N   0  0  0  0  0  0  0  0  0  0  0  0
   -7.0103    4.6094    2.4482 S   0  0  0  0  0  0  0  0  0  0  0  0
   -7.2691    4.8531    3.8240 O   0  0  0  0  0  0  0  0  0  0  0  0
   -6.6098    5.6671    1.5879 O   0  0  0  0  0  0  0  0  0  0  0  0
   -8.3861    3.6882    1.7072 C   0  0  0  0  0  0  0  0  0  0  0  0
   -9.6118    4.5639    1.6646 C   0  0  0  0  0  0  0  0  0  0  0  0
  -10.4965    4.5666    2.7267 C   0  0  0  0  0  0  0  0  0  0  0  0
  -11.6181    5.3739    2.6899 C   0  0  0  0  0  0  0  0  0  0  0  0
  -11.8606    6.1701    1.5863 C   0  0  0  0  0  0  0  0  0  0  0  0
  -10.9789    6.1631    0.5217 C   0  0  0  0  0  0  0  0  0  0  0  0
   -9.8543    5.3601    0.5610 C   0  0  0  0  0  0  0  0  0  0  0  0
   -4.0581    0.8325   -2.7638 H   0  0  0  0  0  0  0  0  0  0  0  0
   -3.6633    2.5094   -3.2116 H   0  0  0  0  0  0  0  0  0  0  0  0
   -2.4830    1.5273   -2.3113 H   0  0  0  0  0  0  0  0  0  0  0  0
   -5.5747    3.4275   -2.1104 H   0  0  0  0  0  0  0  0  0  0  0  0
   -6.5557    4.2376    0.0281 H   0  0  0  0  0  0  0  0  0  0  0  0
   -2.5355    0.2301   -0.8747 H   0  0  0  0  0  0  0  0  0  0  0  0
   -2.5271    0.2204    0.9052 H   0  0  0  0  0  0  0  0  0  0  0  0
    0.0021   -0.0041    0.0020 H   0  0  0  0  0  0  0  0  0  0  0  0
    1.2883    2.3477   -0.8877 H   0  0  0  0  0  0  0  0  0  0  0  0
    1.3053    2.3381    0.8922 H   0  0  0  0  0  0  0  0  0  0  0  0
    2.3182    0.0562   -0.8616 H   0  0  0  0  0  0  0  0  0  0  0  0
    2.5442    0.6164    2.1304 H   0  0  0  0  0  0  0  0  0  0  0  0
    1.5054   -0.6199    1.3814 H   0  0  0  0  0  0  0  0  0  0  0  0
    3.5092   -1.7239    0.4249 H   0  0  0  0  0  0  0  0  0  0  0  0
    3.6253   -1.6142    2.1976 H   0  0  0  0  0  0  0  0  0  0  0  0
    5.0302    0.4175    1.9798 H   0  0  0  0  0  0  0  0  0  0  0  0
    4.8042   -0.1427   -1.0122 H   0  0  0  0  0  0  0  0  0  0  0  0
    5.8429    1.0936   -0.2632 H   0  0  0  0  0  0  0  0  0  0  0  0
    3.7230    2.0879   -1.0794 H   0  0  0  0  0  0  0  0  0  0  0  0
    3.8392    2.1976    0.6933 H   0  0  0  0  0  0  0  0  0  0  0  0
    6.0855   -1.7447    1.9701 H   0  0  0  0  0  0  0  0  0  0  0  0
    6.0135   -1.8032    0.3096 H   0  0  0  0  0  0  0  0  0  0  0  0
   -5.3601    3.2379    3.2762 H   0  0  0  0  0  0  0  0  0  0  0  0
   -8.1185    3.3881    0.6941 H   0  0  0  0  0  0  0  0  0  0  0  0
   -8.5938    2.8013    2.3059 H   0  0  0  0  0  0  0  0  0  0  0  0
  -10.3094    3.9412    3.5871 H   0  0  0  0  0  0  0  0  0  0  0  0
  -12.3068    5.3796    3.5218 H   0  0  0  0  0  0  0  0  0  0  0  0
  -12.7388    6.7980    1.5559 H   0  0  0  0  0  0  0  0  0  0  0  0
  -11.1683    6.7852   -0.3405 H   0  0  0  0  0  0  0  0  0  0  0  0
   -9.1654    5.3547   -0.2708 H   0  0  0  0  0  0  0  0  0  0  0  0
    6.0731   -1.1864    1.1181 N   0  3  0  0  0  0  0  0  0  0  0  0
    6.9422   -0.6426    1.0613 H   0  0  0  0  0  0  0  0  0  0  0  0
  1  2  1  0  0  0  0
  1 31  1  0  0  0  0
  1 32  1  0  0  0  0
  1 33  1  0  0  0  0
  2  8  1  0  0  0  0
  2  3  2  0  0  0  0
  3  4  1  0  0  0  0
  3 34  1  0  0  0  0
  4  5  2  0  0  0  0
  4 35  1  0  0  0  0
  5  6  1  0  0  0  0
  5 20  1  0  0  0  0
  6  7  2  0  0  0  0
  6  8  1  0  0  0  0
  8  9  1  0  0  0  0
  9 10  1  0  0  0  0
  9 36  1  0  0  0  0
  9 37  1  0  0  0  0
 10 11  2  0  0  0  0
 10 12  1  0  0  0  0
 12 13  1  0  0  0  0
 12 38  1  0  0  0  0
 13 14  1  0  0  0  0
 13 39  1  0  0  0  0
 13 40  1  0  0  0  0
 14 19  1  0  0  0  0
 14 15  1  0  0  0  0
 14 41  1  0  0  0  0
 15 16  1  0  0  0  0
 15 42  1  0  0  0  0
 15 43  1  0  0  0  0
 16 17  1  0  0  0  0
 16 44  1  0  0  0  0
 16 45  1  0  0  0  0
 17 18  1  0  0  0  0
 17 46  1  0  0  0  0
 17 61  1  0  0  0  0
 18 19  1  0  0  0  0
 18 47  1  0  0  0  0
 18 48  1  0  0  0  0
 19 49  1  0  0  0  0
 19 50  1  0  0  0  0
 20 21  1  0  0  0  0
 20 53  1  0  0  0  0
 21 22  2  0  0  0  0
 21 23  2  0  0  0  0
 21 24  1  0  0  0  0
 24 25  1  0  0  0  0
 24 54  1  0  0  0  0
 24 55  1  0  0  0  0
 25 30  2  0  0  0  0
 25 26  1  0  0  0  0
 26 27  2  0  0  0  0
 26 56  1  0  0  0  0
 27 28  1  0  0  0  0
 27 57  1  0  0  0  0
 28 29  2  0  0  0  0
 28 58  1  0  0  0  0
 29 30  1  0  0  0  0
 29 59  1  0  0  0  0
 30 60  1  0  0  0  0
 51 61  1  0  0  0  0
 52 61  1  0  0  0  0
 61 62  1  0  0  0  0
M  CHG  1  61   1
M  END
$$$$
ZINC03814111
  -OEChem-08230709403D

 45 47  0     0  0  0  0  0  0999 V2000
    9.5395    3.9479   -4.0364 C   0  0  0  0  0  0  0  0  0  0  0  0
    8.8033    4.2839   -2.7652 C   0  0  0  0  0  0  0  0  0  0  0  0
    7.5008    3.8567   -2.5888 C   0  0  0  0  0  0  0  0  0  0  0  0
    6.8191    4.1693   -1.4214 C   0  0  0  0  0  0  0  0  0  0  0  0
    7.4491    4.9019   -0.4270 C   0  0  0  0  0  0  0  0  0  0  0  0
    8.7572    5.3247   -0.6041 C   0  0  0  0  0  0  0  0  0  0  0  0
    9.4332    5.0140   -1.7758 C   0  0  0  0  0  0  0  0  0  0  0  0
    9.3775    6.0425    0.3689 O   0  0  0  0  0  0  0  0  0  0  0  0
   10.1192    5.1907    1.3891 S   0  0  0  0  0  0  0  0  0  0  0  0
   10.5242    6.0667    2.4321 O   0  0  0  0  0  0  0  0  0  0  0  0
    9.3115    4.0459    1.6263 O   0  0  0  0  0  0  0  0  0  0  0  0
   11.5933    4.6151    0.6141 C   0  0  0  0  0  0  0  0  0  0  0  0
   11.5998    3.4127   -0.0767 C   0  0  0  0  0  0  0  0  0  0  0  0
   12.7811    3.0017   -0.6745 C   0  0  0  0  0  0  0  0  0  0  0  0
   13.9077    3.7936   -0.5547 C   0  0  0  0  0  0  0  0  0  0  0  0
   13.8659    4.9291    0.1143 N   0  0  0  0  0  0  0  0  0  0  0  0
   12.7587    5.3534    0.6918 C   0  0  0  0  0  0  0  0  0  0  0  0
    5.5368    3.7529   -1.2505 O   0  0  0  0  0  0  0  0  0  0  0  0
    4.8985    4.1058   -0.0217 C   0  0  0  0  0  0  0  0  0  0  0  0
    3.4714    3.5542   -0.0116 C   0  0  0  0  0  0  0  0  0  0  0  0
    3.5137    2.0898   -0.0198 N   0  0  0  0  0  0  0  0  0  0  0  0
    2.3288    1.3592   -0.0129 C   0  0  0  0  0  0  0  0  0  0  0  0
    2.3424   -0.0379   -0.0205 C   0  0  0  0  0  0  0  0  0  0  0  0
    1.1268   -0.6964   -0.0124 C   0  0  0  0  0  0  0  0  0  0  0  0
    0.0021   -0.0041    0.0020 N   0  0  0  0  0  0  0  0  0  0  0  0
   -0.0153    1.2788    0.0091 N   0  0  0  0  0  0  0  0  0  0  0  0
    1.0893    1.9974    0.0024 C   0  0  0  0  0  0  0  0  0  0  0  0
   10.0563    2.9958   -3.9162 H   0  0  0  0  0  0  0  0  0  0  0  0
    8.8286    3.8739   -4.8594 H   0  0  0  0  0  0  0  0  0  0  0  0
   10.2661    4.7309   -4.2533 H   0  0  0  0  0  0  0  0  0  0  0  0
    7.0119    3.2826   -3.3619 H   0  0  0  0  0  0  0  0  0  0  0  0
    6.9216    5.1424    0.4842 H   0  0  0  0  0  0  0  0  0  0  0  0
   10.4523    5.3435   -1.9144 H   0  0  0  0  0  0  0  0  0  0  0  0
   10.7049    2.8126   -0.1505 H   0  0  0  0  0  0  0  0  0  0  0  0
   12.8217    2.0726   -1.2235 H   0  0  0  0  0  0  0  0  0  0  0  0
   14.8330    3.4785   -1.0140 H   0  0  0  0  0  0  0  0  0  0  0  0
   12.7629    6.2889    1.2314 H   0  0  0  0  0  0  0  0  0  0  0  0
    4.8692    5.1911    0.0740 H   0  0  0  0  0  0  0  0  0  0  0  0
    5.4575    3.6824    0.8128 H   0  0  0  0  0  0  0  0  0  0  0  0
    2.9391    3.9073   -0.8948 H   0  0  0  0  0  0  0  0  0  0  0  0
    2.9554    3.8977    0.8851 H   0  0  0  0  0  0  0  0  0  0  0  0
    4.3674    1.6294   -0.0301 H   0  0  0  0  0  0  0  0  0  0  0  0
    3.2729   -0.5859   -0.0320 H   0  0  0  0  0  0  0  0  0  0  0  0
    1.0968   -1.7760   -0.0183 H   0  0  0  0  0  0  0  0  0  0  0  0
    1.0347    3.0760    0.0083 H   0  0  0  0  0  0  0  0  0  0  0  0
  1  2  1  0  0  0  0
  1 28  1  0  0  0  0
  1 29  1  0  0  0  0
  1 30  1  0  0  0  0
  2  7  2  0  0  0  0
  2  3  1  0  0  0  0
  3  4  2  0  0  0  0
  3 31  1  0  0  0  0
  4  5  1  0  0  0  0
  4 18  1  0  0  0  0
  5  6  2  0  0  0  0
  5 32  1  0  0  0  0
  6  7  1  0  0  0  0
  6  8  1  0  0  0  0
  7 33  1  0  0  0  0
  8  9  1  0  0  0  0
  9 10  2  0  0  0  0
  9 11  2  0  0  0  0
  9 12  1  0  0  0  0
 12 17  2  0  0  0  0
 12 13  1  0  0  0  0
 13 14  2  0  0  0  0
 13 34  1  0  0  0  0
 14 15  1  0  0  0  0
 14 35  1  0  0  0  0
 15 16  2  0  0  0  0
 15 36  1  0  0  0  0
 16 17  1  0  0  0  0
 17 37  1  0  0  0  0
 18 19  1  0  0  0  0
 19 20  1  0  0  0  0
 19 38  1  0  0  0  0
 19 39  1  0  0  0  0
 20 21  1  0  0  0  0
 20 40  1  0  0  0  0
 20 41  1  0  0  0  0
 21 22  1  0  0  0  0
 21 42  1  0  0  0  0
 22 27  2  0  0  0  0
 22 23  1  0  0  0  0
 23 24  2  0  0  0  0
 23 43  1  0  0  0  0
 24 25  1  0  0  0  0
 24 44  1  0  0  0  0
 25 26  2  0  0  0  0
 26 27  1  0  0  0  0
 27 45  1  0  0  0  0
M  END
$$$$
ZINC03815818
  -OEChem-08230709403D

 66 70  0     1  0  0  0  0  0999 V2000
  -13.4661    2.0684   11.3229 C   0  0  0  0  0  0  0  0  0  0  0  0
  -12.0841    2.0415   11.3121 C   0  0  0  0  0  0  0  0  0  0  0  0
  -11.3759    3.1128   10.8007 C   0  0  0  0  0  0  0  0  0  0  0  0
  -12.0498    4.2107   10.2993 C   0  0  0  0  0  0  0  0  0  0  0  0
  -13.4317    4.2397   10.3144 C   0  0  0  0  0  0  0  0  0  0  0  0
  -14.1400    3.1664   10.8218 C   0  0  0  0  0  0  0  0  0  0  0  0
  -11.1471    5.5763    9.6474 S   0  0  0  0  0  0  0  0  0  0  0  0
   -9.8923    5.5325   10.3129 O   0  0  0  0  0  0  0  0  0  0  0  0
  -12.0126    6.6921    9.8060 O   0  0  0  0  0  0  0  0  0  0  0  0
  -10.9340    5.1963    7.8865 C   0  0  0  0  0  0  0  0  0  0  0  0
  -10.1544    6.3267    7.2115 C   0  0  0  0  0  0  0  0  0  0  0  0
   -9.9823    6.0198    5.7894 N   0  0  0  0  0  0  0  0  0  0  0  0
  -10.8367    6.3741    4.8040 C   0  0  0  0  0  0  0  0  0  0  0  0
  -11.8707    6.9968    4.9463 O   0  0  0  0  0  0  0  0  0  0  0  0
  -10.3487    5.9227    3.6498 N   0  0  0  0  0  0  0  0  0  0  0  0
   -9.1316    5.2572    3.9417 N   0  0  0  0  0  0  0  0  0  0  0  0
   -8.9440    5.3384    5.2566 C   0  0  0  0  0  0  0  0  0  0  0  0
   -8.0014    4.8794    5.8716 O   0  0  0  0  0  0  0  0  0  0  0  0
   -8.3379    4.6406    2.8748 C   0  0  1  0  0  0  0  0  0  0  0  0
   -7.7637    3.8055    3.2761 H   0  0  0  0  0  0  0  0  0  0  0  0
   -9.2998    4.1426    1.8202 C   0  0  0  0  0  0  0  0  0  0  0  0
  -10.4210    4.7562    1.5518 C   0  0  0  0  0  0  0  0  0  0  0  0
  -10.8474    6.0137    2.2745 C   0  0  0  0  0  0  0  0  0  0  0  0
   -7.4053    5.6616    2.2756 C   0  0  0  0  0  0  0  0  0  0  0  0
   -7.3880    6.7946    2.7079 O   0  0  0  0  0  0  0  0  0  0  0  0
   -6.5905    5.3156    1.2594 N   0  0  0  0  0  0  0  0  0  0  0  0
   -5.6839    6.3080    0.6769 C   0  0  0  0  0  0  0  0  0  0  0  0
   -5.3542    5.9139   -0.7642 C   0  0  0  0  0  0  0  0  0  0  0  0
   -4.6815    4.5397   -0.7759 C   0  0  0  0  0  0  0  0  0  0  0  0
   -3.3917    4.5963    0.0452 C   0  0  0  0  0  0  0  0  0  0  0  0
   -3.7214    4.9904    1.4863 C   0  0  0  0  0  0  0  0  0  0  0  0
   -4.3941    6.3646    1.4980 C   0  0  0  0  0  0  0  0  0  0  0  0
   -2.7292    3.2428    0.0337 C   0  0  0  0  0  0  0  0  0  0  0  0
   -3.3474    2.0497    0.0209 C   0  0  0  0  0  0  0  0  0  0  0  0
   -2.4089    1.0878    0.0142 N   0  0  0  0  0  0  0  0  0  0  0  0
   -1.2198    1.6419    0.0168 C   0  0  0  0  0  0  0  0  0  0  0  0
   -1.3753    2.9932    0.0303 N   0  0  0  0  0  0  0  0  0  0  0  0
   -2.5888    0.1041    0.0082 H   0  0  0  0  0  0  0  0  0  0  0  0
   -0.0111    0.9658    0.0074 N   0  0  0  0  0  0  0  0  0  0  0  0
  -14.0194    1.2313   11.7224 H   0  0  0  0  0  0  0  0  0  0  0  0
  -11.5576    1.1836   11.7035 H   0  0  0  0  0  0  0  0  0  0  0  0
  -10.2961    3.0920   10.7926 H   0  0  0  0  0  0  0  0  0  0  0  0
  -13.9581    5.0993    9.9267 H   0  0  0  0  0  0  0  0  0  0  0  0
  -15.2198    3.1873   10.8299 H   0  0  0  0  0  0  0  0  0  0  0  0
  -11.9118    5.0975    7.4152 H   0  0  0  0  0  0  0  0  0  0  0  0
  -10.3834    4.2616    7.7805 H   0  0  0  0  0  0  0  0  0  0  0  0
   -9.1766    6.4255    7.6828 H   0  0  0  0  0  0  0  0  0  0  0  0
  -10.7050    7.2614    7.3175 H   0  0  0  0  0  0  0  0  0  0  0  0
   -9.0508    3.2479    1.2689 H   0  0  0  0  0  0  0  0  0  0  0  0
  -11.0665    4.3507    0.7868 H   0  0  0  0  0  0  0  0  0  0  0  0
  -10.4189    6.8868    1.7825 H   0  0  0  0  0  0  0  0  0  0  0  0
  -11.9349    6.0871    2.2793 H   0  0  0  0  0  0  0  0  0  0  0  0
   -6.6043    4.4094    0.9136 H   0  0  0  0  0  0  0  0  0  0  0  0
   -6.1631    7.2870    0.6853 H   0  0  0  0  0  0  0  0  0  0  0  0
   -4.6796    6.6523   -1.1976 H   0  0  0  0  0  0  0  0  0  0  0  0
   -6.2730    5.8736   -1.3492 H   0  0  0  0  0  0  0  0  0  0  0  0
   -4.4466    4.2589   -1.8026 H   0  0  0  0  0  0  0  0  0  0  0  0
   -5.3560    3.8013   -0.3425 H   0  0  0  0  0  0  0  0  0  0  0  0
   -2.7172    5.3347   -0.3882 H   0  0  0  0  0  0  0  0  0  0  0  0
   -4.3960    4.2520    1.9197 H   0  0  0  0  0  0  0  0  0  0  0  0
   -2.8026    5.0307    2.0713 H   0  0  0  0  0  0  0  0  0  0  0  0
   -3.7196    7.1030    1.0646 H   0  0  0  0  0  0  0  0  0  0  0  0
   -4.6290    6.6454    2.5247 H   0  0  0  0  0  0  0  0  0  0  0  0
   -4.4156    1.8910    0.0212 H   0  0  0  0  0  0  0  0  0  0  0  0
    0.0021   -0.0041    0.0020 H   0  0  0  0  0  0  0  0  0  0  0  0
    0.8223    1.4622    0.0021 H   0  0  0  0  0  0  0  0  0  0  0  0
  1  6  2  0  0  0  0
  1  2  1  0  0  0  0
  1 40  1  0  0  0  0
  2  3  2  0  0  0  0
  2 41  1  0  0  0  0
  3  4  1  0  0  0  0
  3 42  1  0  0  0  0
  4  5  2  0  0  0  0
  4  7  1  0  0  0  0
  5  6  1  0  0  0  0
  5 43  1  0  0  0  0
  6 44  1  0  0  0  0
  7  8  2  0  0  0  0
  7  9  2  0  0  0  0
  7 10  1  0  0  0  0
 10 11  1  0  0  0  0
 10 45  1  0  0  0  0
 10 46  1  0  0  0  0
 11 12  1  0  0  0  0
 11 47  1  0  0  0  0
 11 48  1  0  0  0  0
 12 17  1  0  0  0  0
 12 13  1  0  0  0  0
 13 14  2  0  0  0  0
 13 15  1  0  0  0  0
 15 23  1  0  0  0  0
 15 16  1  0  0  0  0
 16 17  1  0  0  0  0
 16 19  1  0  0  0  0
 17 18  2  0  0  0  0
 19 20  1  0  0  0  0
 19 21  1  0  0  0  0
 19 24  1  0  0  0  0
 21 22  2  0  0  0  0
 21 49  1  0  0  0  0
 22 23  1  0  0  0  0
 22 50  1  0  0  0  0
 23 51  1  0  0  0  0
 23 52  1  0  0  0  0
 24 25  2  0  0  0  0
 24 26  1  0  0  0  0
 26 27  1  0  0  0  0
 26 53  1  0  0  0  0
 27 32  1  0  0  0  0
 27 28  1  0  0  0  0
 27 54  1  0  0  0  0
 28 29  1  0  0  0  0
 28 55  1  0  0  0  0
 28 56  1  0  0  0  0
 29 30  1  0  0  0  0
 29 57  1  0  0  0  0
 29 58  1  0  0  0  0
 30 31  1  0  0  0  0
 30 33  1  0  0  0  0
 30 59  1  0  0  0  0
 31 32  1  0  0  0  0
 31 60  1  0  0  0  0
 31 61  1  0  0  0  0
 32 62  1  0  0  0  0
 32 63  1  0  0  0  0
 33 37  1  0  0  0  0
 33 34  2  0  0  0  0
 34 35  1  0  0  0  0
 34 64  1  0  0  0  0
 35 36  1  0  0  0  0
 35 38  1  0  0  0  0
 36 39  1  0  0  0  0
 36 37  2  0  0  0  0
 39 65  1  0  0  0  0
 39 66  1  0  0  0  0
M  END
$$$$
ZINC03815818
  -OEChem-08230709403D

 67 71  0     1  0  0  0  0  0999 V2000
  -13.4661    2.0684   11.3229 C   0  0  0  0  0  0  0  0  0  0  0  0
  -12.0841    2.0415   11.3121 C   0  0  0  0  0  0  0  0  0  0  0  0
  -11.3759    3.1128   10.8007 C   0  0  0  0  0  0  0  0  0  0  0  0
  -12.0498    4.2107   10.2993 C   0  0  0  0  0  0  0  0  0  0  0  0
  -13.4317    4.2397   10.3144 C   0  0  0  0  0  0  0  0  0  0  0  0
  -14.1400    3.1664   10.8218 C   0  0  0  0  0  0  0  0  0  0  0  0
  -11.1471    5.5763    9.6474 S   0  0  0  0  0  0  0  0  0  0  0  0
   -9.8923    5.5325   10.3129 O   0  0  0  0  0  0  0  0  0  0  0  0
  -12.0126    6.6921    9.8060 O   0  0  0  0  0  0  0  0  0  0  0  0
  -10.9340    5.1963    7.8865 C   0  0  0  0  0  0  0  0  0  0  0  0
  -10.1544    6.3267    7.2115 C   0  0  0  0  0  0  0  0  0  0  0  0
   -9.9823    6.0198    5.7894 N   0  0  0  0  0  0  0  0  0  0  0  0
  -10.8367    6.3741    4.8040 C   0  0  0  0  0  0  0  0  0  0  0  0
  -11.8707    6.9968    4.9463 O   0  0  0  0  0  0  0  0  0  0  0  0
  -10.3487    5.9227    3.6498 N   0  0  0  0  0  0  0  0  0  0  0  0
   -9.1316    5.2572    3.9417 N   0  0  0  0  0  0  0  0  0  0  0  0
   -8.9440    5.3384    5.2566 C   0  0  0  0  0  0  0  0  0  0  0  0
   -8.0014    4.8794    5.8716 O   0  0  0  0  0  0  0  0  0  0  0  0
   -8.3379    4.6406    2.8748 C   0  0  1  0  0  0  0  0  0  0  0  0
   -7.7637    3.8055    3.2761 H   0  0  0  0  0  0  0  0  0  0  0  0
   -9.2998    4.1426    1.8202 C   0  0  0  0  0  0  0  0  0  0  0  0
  -10.4210    4.7562    1.5518 C   0  0  0  0  0  0  0  0  0  0  0  0
  -10.8474    6.0137    2.2745 C   0  0  0  0  0  0  0  0  0  0  0  0
   -7.4053    5.6616    2.2756 C   0  0  0  0  0  0  0  0  0  0  0  0
   -7.3880    6.7946    2.7079 O   0  0  0  0  0  0  0  0  0  0  0  0
   -6.5905    5.3156    1.2594 N   0  0  0  0  0  0  0  0  0  0  0  0
   -5.6839    6.3080    0.6769 C   0  0  0  0  0  0  0  0  0  0  0  0
   -5.3542    5.9139   -0.7642 C   0  0  0  0  0  0  0  0  0  0  0  0
   -4.6815    4.5397   -0.7759 C   0  0  0  0  0  0  0  0  0  0  0  0
   -3.3917    4.5963    0.0452 C   0  0  0  0  0  0  0  0  0  0  0  0
   -3.7214    4.9904    1.4863 C   0  0  0  0  0  0  0  0  0  0  0  0
   -4.3941    6.3646    1.4980 C   0  0  0  0  0  0  0  0  0  0  0  0
   -2.7292    3.2428    0.0337 C   0  0  0  0  0  0  0  0  0  0  0  0
   -3.3474    2.0496    0.0302 C   0  0  0  0  0  0  0  0  0  0  0  0
   -1.2198    1.6419    0.0168 C   0  0  0  0  0  0  0  0  0  0  0  0
   -1.3753    2.9932    0.0303 N   0  0  0  0  0  0  0  0  0  0  0  0
   -0.6446    3.6759    0.0366 H   0  0  0  0  0  0  0  0  0  0  0  0
   -0.0111    0.9658    0.0074 N   0  0  0  0  0  0  0  0  0  0  0  0
  -14.0194    1.2313   11.7224 H   0  0  0  0  0  0  0  0  0  0  0  0
  -11.5576    1.1836   11.7035 H   0  0  0  0  0  0  0  0  0  0  0  0
  -10.2961    3.0920   10.7926 H   0  0  0  0  0  0  0  0  0  0  0  0
  -13.9581    5.0993    9.9267 H   0  0  0  0  0  0  0  0  0  0  0  0
  -15.2198    3.1873   10.8299 H   0  0  0  0  0  0  0  0  0  0  0  0
  -11.9118    5.0975    7.4152 H   0  0  0  0  0  0  0  0  0  0  0  0
  -10.3834    4.2616    7.7805 H   0  0  0  0  0  0  0  0  0  0  0  0
   -9.1766    6.4255    7.6828 H   0  0  0  0  0  0  0  0  0  0  0  0
  -10.7050    7.2614    7.3175 H   0  0  0  0  0  0  0  0  0  0  0  0
   -9.0508    3.2479    1.2689 H   0  0  0  0  0  0  0  0  0  0  0  0
  -11.0665    4.3507    0.7868 H   0  0  0  0  0  0  0  0  0  0  0  0
  -10.4189    6.8868    1.7825 H   0  0  0  0  0  0  0  0  0  0  0  0
  -11.9349    6.0871    2.2793 H   0  0  0  0  0  0  0  0  0  0  0  0
   -6.6043    4.4094    0.9136 H   0  0  0  0  0  0  0  0  0  0  0  0
   -6.1631    7.2870    0.6853 H   0  0  0  0  0  0  0  0  0  0  0  0
   -4.6796    6.6523   -1.1976 H   0  0  0  0  0  0  0  0  0  0  0  0
   -6.2730    5.8736   -1.3492 H   0  0  0  0  0  0  0  0  0  0  0  0
   -4.4466    4.2589   -1.8026 H   0  0  0  0  0  0  0  0  0  0  0  0
   -5.3560    3.8013   -0.3425 H   0  0  0  0  0  0  0  0  0  0  0  0
   -2.7172    5.3347   -0.3882 H   0  0  0  0  0  0  0  0  0  0  0  0
   -4.3960    4.2520    1.9197 H   0  0  0  0  0  0  0  0  0  0  0  0
   -2.8026    5.0307    2.0713 H   0  0  0  0  0  0  0  0  0  0  0  0
   -3.7196    7.1030    1.0646 H   0  0  0  0  0  0  0  0  0  0  0  0
   -4.6290    6.6454    2.5247 H   0  0  0  0  0  0  0  0  0  0  0  0
   -4.4156    1.8909    0.0354 H   0  0  0  0  0  0  0  0  0  0  0  0
    0.0021   -0.0041    0.0020 H   0  0  0  0  0  0  0  0  0  0  0  0
    0.8223    1.4622    0.0021 H   0  0  0  0  0  0  0  0  0  0  0  0
   -2.4087    1.0887    0.0198 N   0  3  0  0  0  0  0  0  0  0  0  0
   -2.5934    0.0787    0.0150 H   0  0  0  0  0  0  0  0  0  0  0  0
  1  6  2  0  0  0  0
  1  2  1  0  0  0  0
  1 39  1  0  0  0  0
  2  3  2  0  0  0  0
  2 40  1  0  0  0  0
  3  4  1  0  0  0  0
  3 41  1  0  0  0  0
  4  5  2  0  0  0  0
  4  7  1  0  0  0  0
  5  6  1  0  0  0  0
  5 42  1  0  0  0  0
  6 43  1  0  0  0  0
  7  8  2  0  0  0  0
  7  9  2  0  0  0  0
  7 10  1  0  0  0  0
 10 11  1  0  0  0  0
 10 44  1  0  0  0  0
 10 45  1  0  0  0  0
 11 12  1  0  0  0  0
 11 46  1  0  0  0  0
 11 47  1  0  0  0  0
 12 17  1  0  0  0  0
 12 13  1  0  0  0  0
 13 14  2  0  0  0  0
 13 15  1  0  0  0  0
 15 23  1  0  0  0  0
 15 16  1  0  0  0  0
 16 17  1  0  0  0  0
 16 19  1  0  0  0  0
 17 18  2  0  0  0  0
 19 20  1  0  0  0  0
 19 21  1  0  0  0  0
 19 24  1  0  0  0  0
 21 22  2  0  0  0  0
 21 48  1  0  0  0  0
 22 23  1  0  0  0  0
 22 49  1  0  0  0  0
 23 50  1  0  0  0  0
 23 51  1  0  0  0  0
 24 25  2  0  0  0  0
 24 26  1  0  0  0  0
 26 27  1  0  0  0  0
 26 52  1  0  0  0  0
 27 32  1  0  0  0  0
 27 28  1  0  0  0  0
 27 53  1  0  0  0  0
 28 29  1  0  0  0  0
 28 54  1  0  0  0  0
 28 55  1  0  0  0  0
 29 30  1  0  0  0  0
 29 56  1  0  0  0  0
 29 57  1  0  0  0  0
 30 31  1  0  0  0  0
 30 33  1  0  0  0  0
 30 58  1  0  0  0  0
 31 32  1  0  0  0  0
 31 59  1  0  0  0  0
 31 60  1  0  0  0  0
 32 61  1  0  0  0  0
 32 62  1  0  0  0  0
 33 36  1  0  0  0  0
 33 34  2  0  0  0  0
 34 63  1  0  0  0  0
 34 66  1  0  0  0  0
 35 36  1  0  0  0  0
 35 38  1  0  0  0  0
 35 66  2  0  0  0  0
 36 37  1  0  0  0  0
 38 64  1  0  0  0  0
 38 65  1  0  0  0  0
 66 67  1  0  0  0  0
M  CHG  1  66   1
M  END
$$$$
ZINC03815818
  -OEChem-08230709403D

 66 70  0     1  0  0  0  0  0999 V2000
  -13.4661    2.0684   11.3229 C   0  0  0  0  0  0  0  0  0  0  0  0
  -12.0841    2.0415   11.3121 C   0  0  0  0  0  0  0  0  0  0  0  0
  -11.3759    3.1128   10.8007 C   0  0  0  0  0  0  0  0  0  0  0  0
  -12.0498    4.2107   10.2993 C   0  0  0  0  0  0  0  0  0  0  0  0
  -13.4317    4.2397   10.3144 C   0  0  0  0  0  0  0  0  0  0  0  0
  -14.1400    3.1664   10.8218 C   0  0  0  0  0  0  0  0  0  0  0  0
  -11.1471    5.5763    9.6474 S   0  0  0  0  0  0  0  0  0  0  0  0
   -9.8923    5.5325   10.3129 O   0  0  0  0  0  0  0  0  0  0  0  0
  -12.0126    6.6921    9.8060 O   0  0  0  0  0  0  0  0  0  0  0  0
  -10.9340    5.1963    7.8865 C   0  0  0  0  0  0  0  0  0  0  0  0
  -10.1544    6.3267    7.2115 C   0  0  0  0  0  0  0  0  0  0  0  0
   -9.9823    6.0198    5.7894 N   0  0  0  0  0  0  0  0  0  0  0  0
  -10.8367    6.3741    4.8040 C   0  0  0  0  0  0  0  0  0  0  0  0
  -11.8707    6.9968    4.9463 O   0  0  0  0  0  0  0  0  0  0  0  0
  -10.3487    5.9227    3.6498 N   0  0  0  0  0  0  0  0  0  0  0  0
   -9.1316    5.2572    3.9417 N   0  0  0  0  0  0  0  0  0  0  0  0
   -8.9440    5.3384    5.2566 C   0  0  0  0  0  0  0  0  0  0  0  0
   -8.0014    4.8794    5.8716 O   0  0  0  0  0  0  0  0  0  0  0  0
   -8.3379    4.6406    2.8748 C   0  0  1  0  0  0  0  0  0  0  0  0
   -7.7637    3.8055    3.2761 H   0  0  0  0  0  0  0  0  0  0  0  0
   -9.2998    4.1426    1.8202 C   0  0  0  0  0  0  0  0  0  0  0  0
  -10.4210    4.7562    1.5518 C   0  0  0  0  0  0  0  0  0  0  0  0
  -10.8474    6.0137    2.2745 C   0  0  0  0  0  0  0  0  0  0  0  0
   -7.4053    5.6616    2.2756 C   0  0  0  0  0  0  0  0  0  0  0  0
   -7.3880    6.7946    2.7079 O   0  0  0  0  0  0  0  0  0  0  0  0
   -6.5905    5.3156    1.2594 N   0  0  0  0  0  0  0  0  0  0  0  0
   -5.6839    6.3080    0.6769 C   0  0  0  0  0  0  0  0  0  0  0  0
   -5.3542    5.9139   -0.7642 C   0  0  0  0  0  0  0  0  0  0  0  0
   -4.6815    4.5397   -0.7759 C   0  0  0  0  0  0  0  0  0  0  0  0
   -3.3917    4.5963    0.0452 C   0  0  0  0  0  0  0  0  0  0  0  0
   -3.7214    4.9904    1.4863 C   0  0  0  0  0  0  0  0  0  0  0  0
   -4.3941    6.3646    1.4980 C   0  0  0  0  0  0  0  0  0  0  0  0
   -2.7292    3.2428    0.0337 C   0  0  0  0  0  0  0  0  0  0  0  0
   -3.3474    2.0497    0.0209 C   0  0  0  0  0  0  0  0  0  0  0  0
   -2.4089    1.0878    0.0142 N   0  0  0  0  0  0  0  0  0  0  0  0
   -1.2198    1.6419    0.0168 C   0  0  0  0  0  0  0  0  0  0  0  0
   -1.3753    2.9932    0.0303 N   0  0  0  0  0  0  0  0  0  0  0  0
   -2.5888    0.1041    0.0082 H   0  0  0  0  0  0  0  0  0  0  0  0
   -0.0111    0.9658    0.0074 N   0  0  0  0  0  0  0  0  0  0  0  0
  -14.0194    1.2313   11.7224 H   0  0  0  0  0  0  0  0  0  0  0  0
  -11.5576    1.1836   11.7035 H   0  0  0  0  0  0  0  0  0  0  0  0
  -10.2961    3.0920   10.7926 H   0  0  0  0  0  0  0  0  0  0  0  0
  -13.9581    5.0993    9.9267 H   0  0  0  0  0  0  0  0  0  0  0  0
  -15.2198    3.1873   10.8299 H   0  0  0  0  0  0  0  0  0  0  0  0
  -11.9118    5.0975    7.4152 H   0  0  0  0  0  0  0  0  0  0  0  0
  -10.3834    4.2616    7.7805 H   0  0  0  0  0  0  0  0  0  0  0  0
   -9.1766    6.4255    7.6828 H   0  0  0  0  0  0  0  0  0  0  0  0
  -10.7050    7.2614    7.3175 H   0  0  0  0  0  0  0  0  0  0  0  0
   -9.0508    3.2479    1.2689 H   0  0  0  0  0  0  0  0  0  0  0  0
  -11.0665    4.3507    0.7868 H   0  0  0  0  0  0  0  0  0  0  0  0
  -10.4189    6.8868    1.7825 H   0  0  0  0  0  0  0  0  0  0  0  0
  -11.9349    6.0871    2.2793 H   0  0  0  0  0  0  0  0  0  0  0  0
   -6.6043    4.4094    0.9136 H   0  0  0  0  0  0  0  0  0  0  0  0
   -6.1631    7.2870    0.6853 H   0  0  0  0  0  0  0  0  0  0  0  0
   -4.6796    6.6523   -1.1976 H   0  0  0  0  0  0  0  0  0  0  0  0
   -6.2730    5.8736   -1.3492 H   0  0  0  0  0  0  0  0  0  0  0  0
   -4.4466    4.2589   -1.8026 H   0  0  0  0  0  0  0  0  0  0  0  0
   -5.3560    3.8013   -0.3425 H   0  0  0  0  0  0  0  0  0  0  0  0
   -2.7172    5.3347   -0.3882 H   0  0  0  0  0  0  0  0  0  0  0  0
   -4.3960    4.2520    1.9197 H   0  0  0  0  0  0  0  0  0  0  0  0
   -2.8026    5.0307    2.0713 H   0  0  0  0  0  0  0  0  0  0  0  0
   -3.7196    7.1030    1.0646 H   0  0  0  0  0  0  0  0  0  0  0  0
   -4.6290    6.6454    2.5247 H   0  0  0  0  0  0  0  0  0  0  0  0
   -4.4156    1.8910    0.0212 H   0  0  0  0  0  0  0  0  0  0  0  0
    0.0021   -0.0041    0.0020 H   0  0  0  0  0  0  0  0  0  0  0  0
    0.8223    1.4622    0.0021 H   0  0  0  0  0  0  0  0  0  0  0  0
  1  6  2  0  0  0  0
  1  2  1  0  0  0  0
  1 40  1  0  0  0  0
  2  3  2  0  0  0  0
  2 41  1  0  0  0  0
  3  4  1  0  0  0  0
  3 42  1  0  0  0  0
  4  5  2  0  0  0  0
  4  7  1  0  0  0  0
  5  6  1  0  0  0  0
  5 43  1  0  0  0  0
  6 44  1  0  0  0  0
  7  8  2  0  0  0  0
  7  9  2  0  0  0  0
  7 10  1  0  0  0  0
 10 11  1  0  0  0  0
 10 45  1  0  0  0  0
 10 46  1  0  0  0  0
 11 12  1  0  0  0  0
 11 47  1  0  0  0  0
 11 48  1  0  0  0  0
 12 17  1  0  0  0  0
 12 13  1  0  0  0  0
 13 14  2  0  0  0  0
 13 15  1  0  0  0  0
 15 23  1  0  0  0  0
 15 16  1  0  0  0  0
 16 17  1  0  0  0  0
 16 19  1  0  0  0  0
 17 18  2  0  0  0  0
 19 20  1  0  0  0  0
 19 21  1  0  0  0  0
 19 24  1  0  0  0  0
 21 22  2  0  0  0  0
 21 49  1  0  0  0  0
 22 23  1  0  0  0  0
 22 50  1  0  0  0  0
 23 51  1  0  0  0  0
 23 52  1  0  0  0  0
 24 25  2  0  0  0  0
 24 26  1  0  0  0  0
 26 27  1  0  0  0  0
 26 53  1  0  0  0  0
 27 32  1  0  0  0  0
 27 28  1  0  0  0  0
 27 54  1  0  0  0  0
 28 29  1  0  0  0  0
 28 55  1  0  0  0  0
 28 56  1  0  0  0  0
 29 30  1  0  0  0  0
 29 57  1  0  0  0  0
 29 58  1  0  0  0  0
 30 31  1  0  0  0  0
 30 33  1  0  0  0  0
 30 59  1  0  0  0  0
 31 32  1  0  0  0  0
 31 60  1  0  0  0  0
 31 61  1  0  0  0  0
 32 62  1  0  0  0  0
 32 63  1  0  0  0  0
 33 37  1  0  0  0  0
 33 34  2  0  0  0  0
 34 35  1  0  0  0  0
 34 64  1  0  0  0  0
 35 36  1  0  0  0  0
 35 38  1  0  0  0  0
 36 39  1  0  0  0  0
 36 37  2  0  0  0  0
 39 65  1  0  0  0  0
 39 66  1  0  0  0  0
M  END
$$$$
ZINC03831937
  -OEChem-08230709403D

 57 59  0     0  0  0  0  0  0999 V2000
   -6.4837    8.2890   -2.4928 C   0  0  0  0  0  0  0  0  0  0  0  0
   -7.8009    7.5917   -2.7160 C   0  0  0  0  0  0  0  0  0  0  0  0
   -8.9444    8.3088   -2.7044 C   0  0  0  0  0  0  0  0  0  0  0  0
  -10.1326    7.7367   -2.8972 N   0  0  0  0  0  0  0  0  0  0  0  0
  -10.2295    6.4414   -3.1072 C   0  0  0  0  0  0  0  0  0  0  0  0
   -9.0076    5.6293   -3.1325 C   0  0  0  0  0  0  0  0  0  0  0  0
   -9.0610    4.4271   -3.3295 O   0  0  0  0  0  0  0  0  0  0  0  0
   -7.8217    6.2449   -2.9273 N   0  0  0  0  0  0  0  0  0  0  0  0
   -6.5748    5.4759   -2.9379 C   0  0  0  0  0  0  0  0  0  0  0  0
   -6.2695    4.9947   -1.5428 C   0  0  0  0  0  0  0  0  0  0  0  0
   -7.0197    5.2671   -0.6297 O   0  0  0  0  0  0  0  0  0  0  0  0
   -5.1629    4.2615   -1.3100 N   0  0  0  0  0  0  0  0  0  0  0  0
   -4.8662    3.7936    0.0462 C   0  0  0  0  0  0  0  0  0  0  0  0
   -3.5835    3.0026    0.0354 C   0  0  0  0  0  0  0  0  0  0  0  0
   -3.6156    1.6142    0.0280 C   0  0  0  0  0  0  0  0  0  0  0  0
   -2.4159    0.9263    0.0185 C   0  0  0  0  0  0  0  0  0  0  0  0
   -1.2242    1.6444    0.0168 C   0  0  0  0  0  0  0  0  0  0  0  0
   -2.3649    3.6507    0.0331 C   0  0  0  0  0  0  0  0  0  0  0  0
   -2.3236    5.1571    0.0411 C   0  0  0  0  0  0  0  0  0  0  0  0
   -0.0111    0.9658    0.0074 N   0  0  0  0  0  0  0  0  0  0  0  0
  -11.4707    5.8519   -3.3080 N   0  0  0  0  0  0  0  0  0  0  0  0
  -12.6837    6.6732   -3.2867 C   0  0  0  0  0  0  0  0  0  0  0  0
  -13.9052    5.7851   -3.5322 C   0  0  0  0  0  0  0  0  0  0  0  0
  -15.1530    6.6298   -3.5103 C   0  0  0  0  0  0  0  0  0  0  0  0
  -15.8319    6.8293   -2.3228 C   0  0  0  0  0  0  0  0  0  0  0  0
  -16.9735    7.6085   -2.3019 C   0  0  0  0  0  0  0  0  0  0  0  0
  -17.4423    8.1793   -3.4704 C   0  0  0  0  0  0  0  0  0  0  0  0
  -16.7665    7.9752   -4.6589 C   0  0  0  0  0  0  0  0  0  0  0  0
  -15.6217    7.2006   -4.6788 C   0  0  0  0  0  0  0  0  0  0  0  0
   -6.0781    8.6146   -3.4508 H   0  0  0  0  0  0  0  0  0  0  0  0
   -6.6358    9.1556   -1.8493 H   0  0  0  0  0  0  0  0  0  0  0  0
   -5.7846    7.6014   -2.0171 H   0  0  0  0  0  0  0  0  0  0  0  0
   -8.8952    9.3742   -2.5347 H   0  0  0  0  0  0  0  0  0  0  0  0
   -5.7605    6.1091   -3.2901 H   0  0  0  0  0  0  0  0  0  0  0  0
   -6.6821    4.6188   -3.6026 H   0  0  0  0  0  0  0  0  0  0  0  0
   -4.5629    4.0436   -2.0403 H   0  0  0  0  0  0  0  0  0  0  0  0
   -5.6805    3.1604    0.3985 H   0  0  0  0  0  0  0  0  0  0  0  0
   -4.7588    4.6508    0.7109 H   0  0  0  0  0  0  0  0  0  0  0  0
   -4.5563    1.0837    0.0299 H   0  0  0  0  0  0  0  0  0  0  0  0
   -2.4042   -0.1536    0.0130 H   0  0  0  0  0  0  0  0  0  0  0  0
   -2.3088    5.5147    1.0707 H   0  0  0  0  0  0  0  0  0  0  0  0
   -1.4265    5.4988   -0.4751 H   0  0  0  0  0  0  0  0  0  0  0  0
   -3.2058    5.5475   -0.4664 H   0  0  0  0  0  0  0  0  0  0  0  0
    0.0021   -0.0041    0.0020 H   0  0  0  0  0  0  0  0  0  0  0  0
    0.8223    1.4622    0.0021 H   0  0  0  0  0  0  0  0  0  0  0  0
  -11.5345    4.8964   -3.4622 H   0  0  0  0  0  0  0  0  0  0  0  0
  -12.7768    7.1587   -2.3153 H   0  0  0  0  0  0  0  0  0  0  0  0
  -12.6229    7.4313   -4.0675 H   0  0  0  0  0  0  0  0  0  0  0  0
  -13.8121    5.2995   -4.5036 H   0  0  0  0  0  0  0  0  0  0  0  0
  -13.9660    5.0270   -2.7514 H   0  0  0  0  0  0  0  0  0  0  0  0
  -15.4681    6.3797   -1.4107 H   0  0  0  0  0  0  0  0  0  0  0  0
  -17.5013    7.7683   -1.3733 H   0  0  0  0  0  0  0  0  0  0  0  0
  -18.3363    8.7850   -3.4546 H   0  0  0  0  0  0  0  0  0  0  0  0
  -17.1328    8.4211   -5.5718 H   0  0  0  0  0  0  0  0  0  0  0  0
  -15.0938    7.0411   -5.6074 H   0  0  0  0  0  0  0  0  0  0  0  0
   -1.1667    3.0074    0.0301 N   0  3  0  0  0  0  0  0  0  0  0  0
   -0.2746    3.5158    0.0373 H   0  0  0  0  0  0  0  0  0  0  0  0
  1  2  1  0  0  0  0
  1 30  1  0  0  0  0
  1 31  1  0  0  0  0
  1 32  1  0  0  0  0
  2  8  1  0  0  0  0
  2  3  2  0  0  0  0
  3  4  1  0  0  0  0
  3 33  1  0  0  0  0
  4  5  2  0  0  0  0
  5  6  1  0  0  0  0
  5 21  1  0  0  0  0
  6  7  2  0  0  0  0
  6  8  1  0  0  0  0
  8  9  1  0  0  0  0
  9 10  1  0  0  0  0
  9 34  1  0  0  0  0
  9 35  1  0  0  0  0
 10 11  2  0  0  0  0
 10 12  1  0  0  0  0
 12 13  1  0  0  0  0
 12 36  1  0  0  0  0
 13 14  1  0  0  0  0
 13 37  1  0  0  0  0
 13 38  1  0  0  0  0
 14 18  2  0  0  0  0
 14 15  1  0  0  0  0
 15 16  2  0  0  0  0
 15 39  1  0  0  0  0
 16 17  1  0  0  0  0
 16 40  1  0  0  0  0
 17 20  1  0  0  0  0
 17 56  2  0  0  0  0
 18 19  1  0  0  0  0
 18 56  1  0  0  0  0
 19 41  1  0  0  0  0
 19 42  1  0  0  0  0
 19 43  1  0  0  0  0
 20 44  1  0  0  0  0
 20 45  1  0  0  0  0
 21 22  1  0  0  0  0
 21 46  1  0  0  0  0
 22 23  1  0  0  0  0
 22 47  1  0  0  0  0
 22 48  1  0  0  0  0
 23 24  1  0  0  0  0
 23 49  1  0  0  0  0
 23 50  1  0  0  0  0
 24 29  2  0  0  0  0
 24 25  1  0  0  0  0
 25 26  2  0  0  0  0
 25 51  1  0  0  0  0
 26 27  1  0  0  0  0
 26 52  1  0  0  0  0
 27 28  2  0  0  0  0
 27 53  1  0  0  0  0
 28 29  1  0  0  0  0
 28 54  1  0  0  0  0
 29 55  1  0  0  0  0
 56 57  1  0  0  0  0
M  CHG  1  56   1
M  END
$$$$
ZINC03832368
  -OEChem-08230709403D

 44 46  0     0  0  0  0  0  0999 V2000
   -0.6386    3.7587    0.0368 H   0  0  0  0  0  0  0  0  0  0  0  0
   -0.9995    1.7558   -0.0469 C   0  0  0  0  0  0  0  0  0  0  0  0
   -2.0880    0.7550   -0.0545 C   0  0  0  0  0  0  0  0  0  0  0  0
   -1.7864   -0.6057   -0.1378 C   0  0  0  0  0  0  0  0  0  0  0  0
   -2.8019   -1.5359   -0.1399 C   0  0  0  0  0  0  0  0  0  0  0  0
   -4.1280   -1.1202   -0.0697 C   0  0  0  0  0  0  0  0  0  0  0  0
   -4.4314    0.2354    0.0080 C   0  0  0  0  0  0  0  0  0  0  0  0
   -3.4195    1.1695    0.0157 C   0  0  0  0  0  0  0  0  0  0  0  0
   -5.1530   -2.0626   -0.0778 N   0  0  0  0  0  0  0  0  0  0  0  0
   -4.8349   -3.4903   -0.1597 C   0  0  0  0  0  0  0  0  0  0  0  0
   -6.1117   -4.2907   -0.1515 C   0  0  0  0  0  0  0  0  0  0  0  0
   -6.6490   -4.7207    1.0478 C   0  0  0  0  0  0  0  0  0  0  0  0
   -7.8223   -5.4498    1.0585 C   0  0  0  0  0  0  0  0  0  0  0  0
   -8.4559   -5.7597   -0.1364 C   0  0  0  0  0  0  0  0  0  0  0  0
   -7.9116   -5.3318   -1.3389 C   0  0  0  0  0  0  0  0  0  0  0  0
   -6.7409   -4.5986   -1.3437 C   0  0  0  0  0  0  0  0  0  0  0  0
   -9.6078   -6.4807   -0.1289 O   0  0  0  0  0  0  0  0  0  0  0  0
   -9.5791   -7.7341   -0.6530 C   0  0  0  0  0  0  0  0  0  0  0  0
   -8.3753   -8.2884   -1.0636 C   0  0  0  0  0  0  0  0  0  0  0  0
   -8.3483   -9.5649   -1.5911 C   0  0  0  0  0  0  0  0  0  0  0  0
   -9.5210  -10.2859   -1.7199 C   0  0  0  0  0  0  0  0  0  0  0  0
  -10.7228   -9.7337   -1.3168 C   0  0  0  0  0  0  0  0  0  0  0  0
  -10.7547   -8.4596   -0.7838 C   0  0  0  0  0  0  0  0  0  0  0  0
    0.3144    1.3454   -0.1163 N   0  0  0  0  0  0  0  0  0  0  0  0
   -0.7575   -0.9286   -0.1964 H   0  0  0  0  0  0  0  0  0  0  0  0
   -2.5690   -2.5887   -0.1998 H   0  0  0  0  0  0  0  0  0  0  0  0
   -5.4614    0.5554    0.0627 H   0  0  0  0  0  0  0  0  0  0  0  0
   -3.6556    2.2216    0.0765 H   0  0  0  0  0  0  0  0  0  0  0  0
   -6.0778   -1.7738   -0.0293 H   0  0  0  0  0  0  0  0  0  0  0  0
   -4.2878   -3.6884   -1.0813 H   0  0  0  0  0  0  0  0  0  0  0  0
   -4.2218   -3.7755    0.6952 H   0  0  0  0  0  0  0  0  0  0  0  0
   -6.1530   -4.4829    1.9773 H   0  0  0  0  0  0  0  0  0  0  0  0
   -8.2439   -5.7816    1.9958 H   0  0  0  0  0  0  0  0  0  0  0  0
   -8.4031   -5.5714   -2.2702 H   0  0  0  0  0  0  0  0  0  0  0  0
   -6.3168   -4.2653   -2.2793 H   0  0  0  0  0  0  0  0  0  0  0  0
   -7.4595   -7.7239   -0.9673 H   0  0  0  0  0  0  0  0  0  0  0  0
   -7.4110   -9.9983   -1.9073 H   0  0  0  0  0  0  0  0  0  0  0  0
   -9.4983  -11.2821   -2.1363 H   0  0  0  0  0  0  0  0  0  0  0  0
  -11.6374  -10.2989   -1.4184 H   0  0  0  0  0  0  0  0  0  0  0  0
  -11.6936   -8.0286   -0.4693 H   0  0  0  0  0  0  0  0  0  0  0  0
    0.5250    0.4001   -0.1701 H   0  0  0  0  0  0  0  0  0  0  0  0
    1.0283    2.0021   -0.1154 H   0  0  0  0  0  0  0  0  0  0  0  0
   -1.3532    3.0308    0.0284 N   0  3  0  0  0  0  0  0  0  0  0  0
   -2.3465    3.2859    0.0782 H   0  0  0  0  0  0  0  0  0  0  0  0
  1 43  1  0  0  0  0
  2  3  1  0  0  0  0
  2 24  1  0  0  0  0
  2 43  2  0  0  0  0
  3  8  2  0  0  0  0
  3  4  1  0  0  0  0
  4  5  2  0  0  0  0
  4 25  1  0  0  0  0
  5  6  1  0  0  0  0
  5 26  1  0  0  0  0
  6  7  2  0  0  0  0
  6  9  1  0  0  0  0
  7  8  1  0  0  0  0
  7 27  1  0  0  0  0
  8 28  1  0  0  0  0
  9 10  1  0  0  0  0
  9 29  1  0  0  0  0
 10 11  1  0  0  0  0
 10 30  1  0  0  0  0
 10 31  1  0  0  0  0
 11 16  2  0  0  0  0
 11 12  1  0  0  0  0
 12 13  2  0  0  0  0
 12 32  1  0  0  0  0
 13 14  1  0  0  0  0
 13 33  1  0  0  0  0
 14 15  2  0  0  0  0
 14 17  1  0  0  0  0
 15 16  1  0  0  0  0
 15 34  1  0  0  0  0
 16 35  1  0  0  0  0
 17 18  1  0  0  0  0
 18 23  2  0  0  0  0
 18 19  1  0  0  0  0
 19 20  2  0  0  0  0
 19 36  1  0  0  0  0
 20 21  1  0  0  0  0
 20 37  1  0  0  0  0
 21 22  2  0  0  0  0
 21 38  1  0  0  0  0
 22 23  1  0  0  0  0
 22 39  1  0  0  0  0
 23 40  1  0  0  0  0
 24 41  1  0  0  0  0
 24 42  1  0  0  0  0
 43 44  1  0  0  0  0
M  CHG  1  43   1
M  END
$$$$
ZINC03834109
  -OEChem-08230709403D

 46 49  0     0  0  0  0  0  0999 V2000
   -0.1637    8.1075    0.0436 C   0  0  0  0  0  0  0  0  0  0  0  0
   -0.9261    7.4043   -0.8715 C   0  0  0  0  0  0  0  0  0  0  0  0
   -0.8965    6.0245   -0.8829 C   0  0  0  0  0  0  0  0  0  0  0  0
   -0.0962    5.3399    0.0297 C   0  0  0  0  0  0  0  0  0  0  0  0
    0.6658    6.0534    0.9530 C   0  0  0  0  0  0  0  0  0  0  0  0
    0.6325    7.4332    0.9517 C   0  0  0  0  0  0  0  0  0  0  0  0
   -0.0601    3.8569    0.0224 C   0  0  0  0  0  0  0  0  0  0  0  0
   -1.2487    3.1292    0.0299 C   0  0  0  0  0  0  0  0  0  0  0  0
   -1.2186    1.7483    0.0173 C   0  0  0  0  0  0  0  0  0  0  0  0
   -0.0126    1.0758    0.0080 C   0  0  0  0  0  0  0  0  0  0  0  0
    1.1870    1.7881    0.0003 C   0  0  0  0  0  0  0  0  0  0  0  0
    1.1645    3.1868    0.0076 C   0  0  0  0  0  0  0  0  0  0  0  0
    2.3268    3.8885   -0.0002 O   0  0  0  0  0  0  0  0  0  0  0  0
    2.4776    1.0672   -0.0149 C   0  0  0  0  0  0  0  0  0  0  0  0
    2.7548   -0.0557    0.6938 C   0  0  0  0  0  0  0  0  0  0  0  0
    4.1334   -0.4279    0.3804 C   0  0  0  0  0  0  0  0  0  0  0  0
    4.9712   -1.4703    0.7877 C   0  0  0  0  0  0  0  0  0  0  0  0
    6.2475   -1.5422    0.3064 C   0  0  0  0  0  0  0  0  0  0  0  0
    6.7200   -0.5881   -0.5847 C   0  0  0  0  0  0  0  0  0  0  0  0
    5.9116    0.4476   -1.0001 C   0  0  0  0  0  0  0  0  0  0  0  0
    4.6083    0.5415   -0.5234 C   0  0  0  0  0  0  0  0  0  0  0  0
    3.5836    1.4356   -0.7454 N   0  0  0  0  0  0  0  0  0  0  0  0
    3.6345    2.2087   -1.3290 H   0  0  0  0  0  0  0  0  0  0  0  0
    7.1502   -2.6659    0.7464 C   0  0  0  0  0  0  0  0  0  0  0  0
   -0.1899    9.1872    0.0489 H   0  0  0  0  0  0  0  0  0  0  0  0
   -1.5460    7.9359   -1.5783 H   0  0  0  0  0  0  0  0  0  0  0  0
   -1.4922    5.4764   -1.5978 H   0  0  0  0  0  0  0  0  0  0  0  0
    1.2841    5.5278    1.6656 H   0  0  0  0  0  0  0  0  0  0  0  0
    1.2258    7.9873    1.6641 H   0  0  0  0  0  0  0  0  0  0  0  0
   -2.1966    3.6468    0.0417 H   0  0  0  0  0  0  0  0  0  0  0  0
   -2.1439    1.1911    0.0187 H   0  0  0  0  0  0  0  0  0  0  0  0
    0.0021   -0.0041    0.0020 H   0  0  0  0  0  0  0  0  0  0  0  0
    2.6549    4.0962   -0.8858 H   0  0  0  0  0  0  0  0  0  0  0  0
    2.0840   -0.5770    1.3606 H   0  0  0  0  0  0  0  0  0  0  0  0
    4.6106   -2.2159    1.4809 H   0  0  0  0  0  0  0  0  0  0  0  0
    7.7316   -0.6586   -0.9564 H   0  0  0  0  0  0  0  0  0  0  0  0
    6.2888    1.1841   -1.6941 H   0  0  0  0  0  0  0  0  0  0  0  0
    7.0389   -3.5094    0.0650 H   0  0  0  0  0  0  0  0  0  0  0  0
    8.6746   -1.4247    1.3578 H   0  0  0  0  0  0  0  0  0  0  0  0
    9.1762   -2.9603    0.9626 H   0  0  0  0  0  0  0  0  0  0  0  0
    5.8108   -3.3430    2.1556 H   0  0  0  0  0  0  0  0  0  0  0  0
    7.3759   -3.8367    2.4247 H   0  0  0  0  0  0  0  0  0  0  0  0
    8.5476   -2.1999    0.7092 N   0  3  0  0  0  0  0  0  0  0  0  0
    8.7722   -1.8820   -0.2409 H   0  0  0  0  0  0  0  0  0  0  0  0
    6.7892   -3.0621    2.1190 N   0  3  0  0  0  0  0  0  0  0  0  0
    6.9325   -2.2643    2.7493 H   0  0  0  0  0  0  0  0  0  0  0  0
  1  6  2  0  0  0  0
  1  2  1  0  0  0  0
  1 25  1  0  0  0  0
  2  3  2  0  0  0  0
  2 26  1  0  0  0  0
  3  4  1  0  0  0  0
  3 27  1  0  0  0  0
  4  5  2  0  0  0  0
  4  7  1  0  0  0  0
  5  6  1  0  0  0  0
  5 28  1  0  0  0  0
  6 29  1  0  0  0  0
  7 12  2  0  0  0  0
  7  8  1  0  0  0  0
  8  9  2  0  0  0  0
  8 30  1  0  0  0  0
  9 10  1  0  0  0  0
  9 31  1  0  0  0  0
 10 11  2  0  0  0  0
 10 32  1  0  0  0  0
 11 12  1  0  0  0  0
 11 14  1  0  0  0  0
 12 13  1  0  0  0  0
 13 33  1  0  0  0  0
 14 22  1  0  0  0  0
 14 15  2  0  0  0  0
 15 16  1  0  0  0  0
 15 34  1  0  0  0  0
 16 21  2  0  0  0  0
 16 17  1  0  0  0  0
 17 18  2  0  0  0  0
 17 35  1  0  0  0  0
 18 19  1  0  0  0  0
 18 24  1  0  0  0  0
 19 20  2  0  0  0  0
 19 36  1  0  0  0  0
 20 21  1  0  0  0  0
 20 37  1  0  0  0  0
 21 22  1  0  0  0  0
 22 23  1  0  0  0  0
 24 38  1  0  0  0  0
 24 43  1  0  0  0  0
 24 45  1  0  0  0  0
 39 43  1  0  0  0  0
 40 43  1  0  0  0  0
 41 45  1  0  0  0  0
 42 45  1  0  0  0  0
 43 44  1  0  0  0  0
 45 46  1  0  0  0  0
M  CHG  2  43   1  45   1
M  END
$$$$
ZINC03834111
  -OEChem-08230709403D

 72 75  0     1  0  0  0  0  0999 V2000
    1.1211   -0.0482    1.5330 C   0  0  0  0  0  0  0  0  0  0  0  0
   -0.1769    0.4517    1.4452 C   0  0  0  0  0  0  0  0  0  0  0  0
   -0.4047    1.7766    1.2337 C   0  0  0  0  0  0  0  0  0  0  0  0
    0.6830    2.6551    1.0914 C   0  0  0  0  0  0  0  0  0  0  0  0
    0.4873    4.0286    0.8669 C   0  0  0  0  0  0  0  0  0  0  0  0
    1.5647    4.8493    0.7336 C   0  0  0  0  0  0  0  0  0  0  0  0
    2.8628    4.3485    0.8157 C   0  0  0  0  0  0  0  0  0  0  0  0
    3.0906    3.0243    1.0321 C   0  0  0  0  0  0  0  0  0  0  0  0
    2.0029    2.1459    1.1753 C   0  0  0  0  0  0  0  0  0  0  0  0
    2.1986    0.7725    1.3997 C   0  0  0  0  0  0  0  0  0  0  0  0
    1.3148    6.5706    0.4523 S   0  0  0  0  0  0  0  0  0  0  0  0
    2.4903    7.0530   -0.1839 O   0  0  0  0  0  0  0  0  0  0  0  0
    0.0248    6.7042   -0.1285 O   0  0  0  0  0  0  0  0  0  0  0  0
    1.2444    7.3039    1.9354 N   0  0  0  0  0  0  0  0  0  0  0  0
    2.4240    7.3145    2.8041 C   0  0  0  0  0  0  0  0  0  0  0  0
    2.2319    8.3311    3.8998 C   0  0  0  0  0  0  0  0  0  0  0  0
    1.2102    8.9826    3.9502 O   0  0  0  0  0  0  0  0  0  0  0  0
    3.1954    8.5163    4.8238 N   0  0  0  0  0  0  0  0  0  0  0  0
    3.0086    9.5045    5.8890 C   0  0  2  0  0  0  0  0  0  0  0  0
    2.4521   10.3572    5.5000 H   0  0  0  0  0  0  0  0  0  0  0  0
    4.3743    9.9742    6.3942 C   0  0  0  0  0  0  0  0  0  0  0  0
    5.0830   10.7281    5.2986 C   0  0  0  0  0  0  0  0  0  0  0  0
    5.9056   10.0536    4.4158 C   0  0  0  0  0  0  0  0  0  0  0  0
    6.5523   10.7445    3.4082 C   0  0  0  0  0  0  0  0  0  0  0  0
    6.3835   12.1113    3.2888 C   0  0  0  0  0  0  0  0  0  0  0  0
    5.5650   12.7866    4.1747 C   0  0  0  0  0  0  0  0  0  0  0  0
    4.9149   12.0951    5.1797 C   0  0  0  0  0  0  0  0  0  0  0  0
    7.0914   12.8650    2.1925 C   0  0  0  0  0  0  0  0  0  0  0  0
    2.2406    8.8795    7.0251 C   0  0  0  0  0  0  0  0  0  0  0  0
    2.2359    7.6746    7.1634 O   0  0  0  0  0  0  0  0  0  0  0  0
    1.5589    9.6595    7.8873 N   0  0  0  0  0  0  0  0  0  0  0  0
    1.4725   11.1109    7.6761 C   0  0  0  0  0  0  0  0  0  0  0  0
   -0.0086   11.5188    7.6869 C   0  0  0  0  0  0  0  0  0  0  0  0
   -0.6559   11.0334    8.9859 C   0  0  0  0  0  0  0  0  0  0  0  0
   -0.5766    9.5067    9.0579 C   0  0  0  0  0  0  0  0  0  0  0  0
    0.8933    9.0753    9.0596 C   0  0  0  0  0  0  0  0  0  0  0  0
    1.2743   -1.1034    1.7050 H   0  0  0  0  0  0  0  0  0  0  0  0
   -1.0146   -0.2220    1.5502 H   0  0  0  0  0  0  0  0  0  0  0  0
   -1.4161    2.1505    1.1720 H   0  0  0  0  0  0  0  0  0  0  0  0
   -0.5129    4.4307    0.8010 H   0  0  0  0  0  0  0  0  0  0  0  0
    3.7004    5.0214    0.7063 H   0  0  0  0  0  0  0  0  0  0  0  0
    4.1020    2.6505    1.0939 H   0  0  0  0  0  0  0  0  0  0  0  0
    3.1987    0.3703    1.4657 H   0  0  0  0  0  0  0  0  0  0  0  0
    0.4221    7.7265    2.2290 H   0  0  0  0  0  0  0  0  0  0  0  0
    2.5597    6.3268    3.2445 H   0  0  0  0  0  0  0  0  0  0  0  0
    3.3050    7.5749    2.2173 H   0  0  0  0  0  0  0  0  0  0  0  0
    4.0126    7.9952    4.7835 H   0  0  0  0  0  0  0  0  0  0  0  0
    4.2378   10.6280    7.2556 H   0  0  0  0  0  0  0  0  0  0  0  0
    4.9711    9.1097    6.6851 H   0  0  0  0  0  0  0  0  0  0  0  0
    6.0405    8.9863    4.5114 H   0  0  0  0  0  0  0  0  0  0  0  0
    7.1915   10.2168    2.7158 H   0  0  0  0  0  0  0  0  0  0  0  0
    5.4331   13.8545    4.0814 H   0  0  0  0  0  0  0  0  0  0  0  0
    4.2754   12.6227    5.8719 H   0  0  0  0  0  0  0  0  0  0  0  0
    8.0642   13.2006    2.5520 H   0  0  0  0  0  0  0  0  0  0  0  0
    6.3876   11.6585    0.6801 H   0  0  0  0  0  0  0  0  0  0  0  0
    7.8049   12.4449    0.3076 H   0  0  0  0  0  0  0  0  0  0  0  0
    6.0908   14.6186    2.5952 H   0  0  0  0  0  0  0  0  0  0  0  0
    6.7398   14.5516    1.0654 H   0  0  0  0  0  0  0  0  0  0  0  0
    2.0028   11.6286    8.4754 H   0  0  0  0  0  0  0  0  0  0  0  0
    1.9166   11.3673    6.7143 H   0  0  0  0  0  0  0  0  0  0  0  0
   -0.5188   11.0682    6.8356 H   0  0  0  0  0  0  0  0  0  0  0  0
   -0.0862   12.6043    7.6253 H   0  0  0  0  0  0  0  0  0  0  0  0
   -1.7004   11.3443    9.0094 H   0  0  0  0  0  0  0  0  0  0  0  0
   -0.1294   11.4649    9.8372 H   0  0  0  0  0  0  0  0  0  0  0  0
   -1.0815    9.0751    8.1937 H   0  0  0  0  0  0  0  0  0  0  0  0
   -1.0586    9.1601    9.9721 H   0  0  0  0  0  0  0  0  0  0  0  0
    0.9550    7.9881    9.0109 H   0  0  0  0  0  0  0  0  0  0  0  0
    1.3773    9.4304    9.9694 H   0  0  0  0  0  0  0  0  0  0  0  0
    7.2889   11.9646    1.0429 N   0  3  0  0  0  0  0  0  0  0  0  0
    7.8246   11.1427    1.3461 H   0  0  0  0  0  0  0  0  0  0  0  0
    6.2653   14.0175    1.7915 N   0  3  0  0  0  0  0  0  0  0  0  0
    5.3678   13.6784    1.4257 H   0  0  0  0  0  0  0  0  0  0  0  0
  1 10  2  0  0  0  0
  1  2  1  0  0  0  0
  1 37  1  0  0  0  0
  2  3  2  0  0  0  0
  2 38  1  0  0  0  0
  3  4  1  0  0  0  0
  3 39  1  0  0  0  0
  4  9  2  0  0  0  0
  4  5  1  0  0  0  0
  5  6  2  0  0  0  0
  5 40  1  0  0  0  0
  6  7  1  0  0  0  0
  6 11  1  0  0  0  0
  7  8  2  0  0  0  0
  7 41  1  0  0  0  0
  8  9  1  0  0  0  0
  8 42  1  0  0  0  0
  9 10  1  0  0  0  0
 10 43  1  0  0  0  0
 11 12  2  0  0  0  0
 11 13  2  0  0  0  0
 11 14  1  0  0  0  0
 14 15  1  0  0  0  0
 14 44  1  0  0  0  0
 15 16  1  0  0  0  0
 15 45  1  0  0  0  0
 15 46  1  0  0  0  0
 16 17  2  0  0  0  0
 16 18  1  0  0  0  0
 18 19  1  0  0  0  0
 18 47  1  0  0  0  0
 19 20  1  0  0  0  0
 19 21  1  0  0  0  0
 19 29  1  0  0  0  0
 21 22  1  0  0  0  0
 21 48  1  0  0  0  0
 21 49  1  0  0  0  0
 22 27  2  0  0  0  0
 22 23  1  0  0  0  0
 23 24  2  0  0  0  0
 23 50  1  0  0  0  0
 24 25  1  0  0  0  0
 24 51  1  0  0  0  0
 25 26  2  0  0  0  0
 25 28  1  0  0  0  0
 26 27  1  0  0  0  0
 26 52  1  0  0  0  0
 27 53  1  0  0  0  0
 28 54  1  0  0  0  0
 28 69  1  0  0  0  0
 28 71  1  0  0  0  0
 29 30  2  0  0  0  0
 29 31  1  0  0  0  0
 31 36  1  0  0  0  0
 31 32  1  0  0  0  0
 32 33  1  0  0  0  0
 32 59  1  0  0  0  0
 32 60  1  0  0  0  0
 33 34  1  0  0  0  0
 33 61  1  0  0  0  0
 33 62  1  0  0  0  0
 34 35  1  0  0  0  0
 34 63  1  0  0  0  0
 34 64  1  0  0  0  0
 35 36  1  0  0  0  0
 35 65  1  0  0  0  0
 35 66  1  0  0  0  0
 36 67  1  0  0  0  0
 36 68  1  0  0  0  0
 55 69  1  0  0  0  0
 56 69  1  0  0  0  0
 57 71  1  0  0  0  0
 58 71  1  0  0  0  0
 69 70  1  0  0  0  0
 71 72  1  0  0  0  0
M  CHG  2  69   1  71   1
M  END
$$$$
ZINC03834112
  -OEChem-08230709403D

 62 64  0     1  0  0  0  0  0999 V2000
   -4.5504   -1.9546   11.1118 C   0  0  0  0  0  0  0  0  0  0  0  0
   -4.4096   -1.6672    9.6392 C   0  0  0  0  0  0  0  0  0  0  0  0
   -5.5253   -1.6778    8.8231 C   0  0  0  0  0  0  0  0  0  0  0  0
   -5.3962   -1.4142    7.4723 C   0  0  0  0  0  0  0  0  0  0  0  0
   -4.1514   -1.1391    6.9377 C   0  0  0  0  0  0  0  0  0  0  0  0
   -3.0350   -1.1333    7.7529 C   0  0  0  0  0  0  0  0  0  0  0  0
   -3.1648   -1.3926    9.1045 C   0  0  0  0  0  0  0  0  0  0  0  0
   -3.9867   -0.8031    5.2159 S   0  0  0  0  0  0  0  0  0  0  0  0
   -5.0997   -1.4113    4.5751 O   0  0  0  0  0  0  0  0  0  0  0  0
   -2.6444   -1.1133    4.8681 O   0  0  0  0  0  0  0  0  0  0  0  0
   -4.1614    0.8317    5.0172 N   0  0  0  0  0  0  0  0  0  0  0  0
   -3.1751    1.7491    5.5931 C   0  0  1  0  0  0  0  0  0  0  0  0
   -2.2227    1.2320    5.7099 H   0  0  0  0  0  0  0  0  0  0  0  0
   -2.9924    2.9506    4.6636 C   0  0  0  0  0  0  0  0  0  0  0  0
   -2.4043    2.4887    3.3552 C   0  0  0  0  0  0  0  0  0  0  0  0
   -3.2368    2.1074    2.3196 C   0  0  0  0  0  0  0  0  0  0  0  0
   -2.6974    1.6842    1.1193 C   0  0  0  0  0  0  0  0  0  0  0  0
   -1.3255    1.6426    0.9545 C   0  0  0  0  0  0  0  0  0  0  0  0
   -0.4930    2.0188    1.9919 C   0  0  0  0  0  0  0  0  0  0  0  0
   -1.0325    2.4458    3.1909 C   0  0  0  0  0  0  0  0  0  0  0  0
   -0.7374    1.1812   -0.3541 C   0  0  0  0  0  0  0  0  0  0  0  0
   -3.6571    2.2243    6.9395 C   0  0  0  0  0  0  0  0  0  0  0  0
   -4.8453    2.2596    7.1804 O   0  0  0  0  0  0  0  0  0  0  0  0
   -2.7679    2.6101    7.8760 N   0  0  0  0  0  0  0  0  0  0  0  0
   -1.3331    2.6713    7.5657 C   0  0  0  0  0  0  0  0  0  0  0  0
   -0.8150    4.0724    7.9244 C   0  0  0  0  0  0  0  0  0  0  0  0
   -1.1554    4.3774    9.3849 C   0  0  0  0  0  0  0  0  0  0  0  0
   -2.6746    4.3640    9.5700 C   0  0  0  0  0  0  0  0  0  0  0  0
   -3.2143    2.9716    9.2283 C   0  0  0  0  0  0  0  0  0  0  0  0
   -4.4419   -3.0253   11.2851 H   0  0  0  0  0  0  0  0  0  0  0  0
   -3.7781   -1.4174   11.6623 H   0  0  0  0  0  0  0  0  0  0  0  0
   -5.5330   -1.6290   11.4532 H   0  0  0  0  0  0  0  0  0  0  0  0
   -6.4979   -1.8923    9.2409 H   0  0  0  0  0  0  0  0  0  0  0  0
   -6.2678   -1.4228    6.8347 H   0  0  0  0  0  0  0  0  0  0  0  0
   -2.0619   -0.9227    7.3344 H   0  0  0  0  0  0  0  0  0  0  0  0
   -2.2931   -1.3841    9.7421 H   0  0  0  0  0  0  0  0  0  0  0  0
   -4.9168    1.1818    4.5195 H   0  0  0  0  0  0  0  0  0  0  0  0
   -2.3206    3.6715    5.1295 H   0  0  0  0  0  0  0  0  0  0  0  0
   -3.9594    3.4197    4.4819 H   0  0  0  0  0  0  0  0  0  0  0  0
   -4.3086    2.1406    2.4481 H   0  0  0  0  0  0  0  0  0  0  0  0
   -3.3477    1.3863    0.3101 H   0  0  0  0  0  0  0  0  0  0  0  0
    0.5788    1.9822    1.8646 H   0  0  0  0  0  0  0  0  0  0  0  0
   -0.3821    2.7433    4.0002 H   0  0  0  0  0  0  0  0  0  0  0  0
   -0.5833    0.1026   -0.3230 H   0  0  0  0  0  0  0  0  0  0  0  0
    0.9948    1.5134   -1.4158 H   0  0  0  0  0  0  0  0  0  0  0  0
    0.4334    2.8552   -0.6095 H   0  0  0  0  0  0  0  0  0  0  0  0
   -1.2869    1.2133   -2.3379 H   0  0  0  0  0  0  0  0  0  0  0  0
   -2.5717    1.1148   -1.2865 H   0  0  0  0  0  0  0  0  0  0  0  0
   -0.8005    1.9211    8.1502 H   0  0  0  0  0  0  0  0  0  0  0  0
   -1.1809    2.4850    6.5026 H   0  0  0  0  0  0  0  0  0  0  0  0
   -1.2861    4.8135    7.2786 H   0  0  0  0  0  0  0  0  0  0  0  0
    0.2659    4.1051    7.7883 H   0  0  0  0  0  0  0  0  0  0  0  0
   -0.7659    5.3600    9.6511 H   0  0  0  0  0  0  0  0  0  0  0  0
   -0.7046    3.6216   10.0281 H   0  0  0  0  0  0  0  0  0  0  0  0
   -3.1281    5.1023    8.9087 H   0  0  0  0  0  0  0  0  0  0  0  0
   -2.9171    4.6043   10.6051 H   0  0  0  0  0  0  0  0  0  0  0  0
   -4.3037    2.9835    9.2625 H   0  0  0  0  0  0  0  0  0  0  0  0
   -2.8320    2.2454    9.9456 H   0  0  0  0  0  0  0  0  0  0  0  0
    0.5620    1.8461   -0.5558 N   0  3  0  0  0  0  0  0  0  0  0  0
    1.1789    1.6287    0.2356 H   0  0  0  0  0  0  0  0  0  0  0  0
   -1.6591    1.5380   -1.4470 N   0  3  0  0  0  0  0  0  0  0  0  0
   -1.7644    2.5588   -1.4800 H   0  0  0  0  0  0  0  0  0  0  0  0
  1  2  1  0  0  0  0
  1 30  1  0  0  0  0
  1 31  1  0  0  0  0
  1 32  1  0  0  0  0
  2  7  2  0  0  0  0
  2  3  1  0  0  0  0
  3  4  2  0  0  0  0
  3 33  1  0  0  0  0
  4  5  1  0  0  0  0
  4 34  1  0  0  0  0
  5  6  2  0  0  0  0
  5  8  1  0  0  0  0
  6  7  1  0  0  0  0
  6 35  1  0  0  0  0
  7 36  1  0  0  0  0
  8  9  2  0  0  0  0
  8 10  2  0  0  0  0
  8 11  1  0  0  0  0
 11 12  1  0  0  0  0
 11 37  1  0  0  0  0
 12 13  1  0  0  0  0
 12 14  1  0  0  0  0
 12 22  1  0  0  0  0
 14 15  1  0  0  0  0
 14 38  1  0  0  0  0
 14 39  1  0  0  0  0
 15 20  2  0  0  0  0
 15 16  1  0  0  0  0
 16 17  2  0  0  0  0
 16 40  1  0  0  0  0
 17 18  1  0  0  0  0
 17 41  1  0  0  0  0
 18 19  2  0  0  0  0
 18 21  1  0  0  0  0
 19 20  1  0  0  0  0
 19 42  1  0  0  0  0
 20 43  1  0  0  0  0
 21 44  1  0  0  0  0
 21 59  1  0  0  0  0
 21 61  1  0  0  0  0
 22 23  2  0  0  0  0
 22 24  1  0  0  0  0
 24 29  1  0  0  0  0
 24 25  1  0  0  0  0
 25 26  1  0  0  0  0
 25 49  1  0  0  0  0
 25 50  1  0  0  0  0
 26 27  1  0  0  0  0
 26 51  1  0  0  0  0
 26 52  1  0  0  0  0
 27 28  1  0  0  0  0
 27 53  1  0  0  0  0
 27 54  1  0  0  0  0
 28 29  1  0  0  0  0
 28 55  1  0  0  0  0
 28 56  1  0  0  0  0
 29 57  1  0  0  0  0
 29 58  1  0  0  0  0
 45 59  1  0  0  0  0
 46 59  1  0  0  0  0
 47 61  1  0  0  0  0
 48 61  1  0  0  0  0
 59 60  1  0  0  0  0
 61 62  1  0  0  0  0
M  CHG  2  59   1  61   1
M  END
$$$$
ZINC03834113
  -OEChem-08230709403D

 46 49  0     0  0  0  0  0  0999 V2000
   -0.0186    0.9392    4.9067 C   0  0  0  0  0  0  0  0  0  0  0  0
    1.2826    0.5281    4.6804 C   0  0  0  0  0  0  0  0  0  0  0  0
    1.9001    0.8130    3.4794 C   0  0  0  0  0  0  0  0  0  0  0  0
    1.2099    1.5158    2.4936 C   0  0  0  0  0  0  0  0  0  0  0  0
   -0.0991    1.9321    2.7291 C   0  0  0  0  0  0  0  0  0  0  0  0
   -0.7085    1.6370    3.9317 C   0  0  0  0  0  0  0  0  0  0  0  0
    1.8682    1.8249    1.2007 C   0  0  0  0  0  0  0  0  0  0  0  0
    3.1357    2.4042    1.1831 C   0  0  0  0  0  0  0  0  0  0  0  0
    3.7488    2.6989   -0.0191 C   0  0  0  0  0  0  0  0  0  0  0  0
    3.1156    2.4179   -1.2137 C   0  0  0  0  0  0  0  0  0  0  0  0
    1.8488    1.8333   -1.2150 C   0  0  0  0  0  0  0  0  0  0  0  0
    1.2216    1.5319   -0.0014 C   0  0  0  0  0  0  0  0  0  0  0  0
   -0.0110    0.9628    0.0073 O   0  0  0  0  0  0  0  0  0  0  0  0
    1.1719    1.5328   -2.4944 C   0  0  0  0  0  0  0  0  0  0  0  0
    1.1804    2.3318   -3.5904 C   0  0  0  0  0  0  0  0  0  0  0  0
    0.3936    1.6529   -4.6189 C   0  0  0  0  0  0  0  0  0  0  0  0
    0.0454    1.9676   -5.9357 C   0  0  0  0  0  0  0  0  0  0  0  0
   -0.7249    1.1021   -6.6592 C   0  0  0  0  0  0  0  0  0  0  0  0
   -1.1640   -0.0903   -6.0972 C   0  0  0  0  0  0  0  0  0  0  0  0
   -0.8318   -0.4207   -4.8002 C   0  0  0  0  0  0  0  0  0  0  0  0
   -0.0492    0.4461   -4.0448 C   0  0  0  0  0  0  0  0  0  0  0  0
    0.4414    0.3969   -2.7581 N   0  0  0  0  0  0  0  0  0  0  0  0
    0.2923   -0.3284   -2.1316 H   0  0  0  0  0  0  0  0  0  0  0  0
   -2.1410   -1.1748   -7.0369 Cl  0  0  0  0  0  0  0  0  0  0  0  0
   -1.1001    1.4424   -8.0785 C   0  0  0  0  0  0  0  0  0  0  0  0
   -0.4979    0.7141    5.8480 H   0  0  0  0  0  0  0  0  0  0  0  0
    1.8165   -0.0164    5.4451 H   0  0  0  0  0  0  0  0  0  0  0  0
    2.9161    0.4916    3.3038 H   0  0  0  0  0  0  0  0  0  0  0  0
   -0.6370    2.4812    1.9704 H   0  0  0  0  0  0  0  0  0  0  0  0
   -1.7244    1.9553    4.1136 H   0  0  0  0  0  0  0  0  0  0  0  0
    3.6384    2.6275    2.1125 H   0  0  0  0  0  0  0  0  0  0  0  0
    4.7291    3.1522   -0.0249 H   0  0  0  0  0  0  0  0  0  0  0  0
    3.6020    2.6516   -2.1492 H   0  0  0  0  0  0  0  0  0  0  0  0
    0.0021   -0.0041    0.0020 H   0  0  0  0  0  0  0  0  0  0  0  0
    1.6743    3.2876   -3.6852 H   0  0  0  0  0  0  0  0  0  0  0  0
    0.3836    2.8923   -6.3793 H   0  0  0  0  0  0  0  0  0  0  0  0
   -1.1787   -1.3496   -4.3721 H   0  0  0  0  0  0  0  0  0  0  0  0
   -0.3906    0.9778   -8.7632 H   0  0  0  0  0  0  0  0  0  0  0  0
   -3.1289    1.3587   -7.7386 H   0  0  0  0  0  0  0  0  0  0  0  0
   -2.7024    1.1013   -9.3253 H   0  0  0  0  0  0  0  0  0  0  0  0
   -0.1677    3.2765   -8.0063 H   0  0  0  0  0  0  0  0  0  0  0  0
   -1.3180    3.1543   -9.2012 H   0  0  0  0  0  0  0  0  0  0  0  0
   -2.4489    0.9179   -8.3559 N   0  3  0  0  0  0  0  0  0  0  0  0
   -2.4568   -0.0959   -8.1936 H   0  0  0  0  0  0  0  0  0  0  0  0
   -1.0877    2.9071   -8.2402 N   0  3  0  0  0  0  0  0  0  0  0  0
   -1.7852    3.3220   -7.6112 H   0  0  0  0  0  0  0  0  0  0  0  0
  1  6  2  0  0  0  0
  1  2  1  0  0  0  0
  1 26  1  0  0  0  0
  2  3  2  0  0  0  0
  2 27  1  0  0  0  0
  3  4  1  0  0  0  0
  3 28  1  0  0  0  0
  4  5  2  0  0  0  0
  4  7  1  0  0  0  0
  5  6  1  0  0  0  0
  5 29  1  0  0  0  0
  6 30  1  0  0  0  0
  7 12  2  0  0  0  0
  7  8  1  0  0  0  0
  8  9  2  0  0  0  0
  8 31  1  0  0  0  0
  9 10  1  0  0  0  0
  9 32  1  0  0  0  0
 10 11  2  0  0  0  0
 10 33  1  0  0  0  0
 11 12  1  0  0  0  0
 11 14  1  0  0  0  0
 12 13  1  0  0  0  0
 13 34  1  0  0  0  0
 14 22  1  0  0  0  0
 14 15  2  0  0  0  0
 15 16  1  0  0  0  0
 15 35  1  0  0  0  0
 16 21  2  0  0  0  0
 16 17  1  0  0  0  0
 17 18  2  0  0  0  0
 17 36  1  0  0  0  0
 18 19  1  0  0  0  0
 18 25  1  0  0  0  0
 19 20  2  0  0  0  0
 19 24  1  0  0  0  0
 20 21  1  0  0  0  0
 20 37  1  0  0  0  0
 21 22  1  0  0  0  0
 22 23  1  0  0  0  0
 25 38  1  0  0  0  0
 25 43  1  0  0  0  0
 25 45  1  0  0  0  0
 39 43  1  0  0  0  0
 40 43  1  0  0  0  0
 41 45  1  0  0  0  0
 42 45  1  0  0  0  0
 43 44  1  0  0  0  0
 45 46  1  0  0  0  0
M  CHG  2  43   1  45   1
M  END
$$$$
ZINC03834114
  -OEChem-08230709403D

 55 58  0     0  0  0  0  0  0999 V2000
   -8.8926   -0.1905    1.1134 C   0  0  0  0  0  0  0  0  0  0  0  0
   -9.1484   -1.4336    0.5654 C   0  0  0  0  0  0  0  0  0  0  0  0
   -8.2893   -2.4880    0.8126 C   0  0  0  0  0  0  0  0  0  0  0  0
   -7.1740   -2.2991    1.6071 C   0  0  0  0  0  0  0  0  0  0  0  0
   -6.9207   -1.0573    2.1590 C   0  0  0  0  0  0  0  0  0  0  0  0
   -7.7774   -0.0018    1.9082 C   0  0  0  0  0  0  0  0  0  0  0  0
   -6.2374   -3.4486    1.8766 C   0  0  0  0  0  0  0  0  0  0  0  0
   -5.1496   -3.4830    0.8012 C   0  0  0  0  0  0  0  0  0  0  0  0
   -4.2729   -4.7212    1.0022 C   0  0  0  0  0  0  0  0  0  0  0  0
   -3.2064   -4.7707   -0.0963 C   0  0  0  0  0  0  0  0  0  0  0  0
   -2.4669   -3.5011   -0.0949 N   0  0  0  0  0  0  0  0  0  0  0  0
   -3.2217   -2.2438   -0.1862 C   0  0  0  0  0  0  0  0  0  0  0  0
   -4.2877   -2.2229    0.9078 C   0  0  0  0  0  0  0  0  0  0  0  0
   -1.1221   -3.4898   -0.0060 C   0  0  0  0  0  0  0  0  0  0  0  0
   -0.5296   -2.4347    0.1188 O   0  0  0  0  0  0  0  0  0  0  0  0
   -0.3710   -4.7529   -0.0598 C   0  0  0  0  0  0  0  0  0  0  0  0
    0.8664   -4.9564    0.4631 C   0  0  0  0  0  0  0  0  0  0  0  0
    1.2305   -6.2990    0.1992 C   0  0  0  0  0  0  0  0  0  0  0  0
    2.3679   -7.0629    0.4919 C   0  0  0  0  0  0  0  0  0  0  0  0
    2.4296   -8.3672    0.0965 C   0  0  0  0  0  0  0  0  0  0  0  0
    1.3736   -8.9477   -0.5952 C   0  0  0  0  0  0  0  0  0  0  0  0
    0.2453   -8.2180   -0.8947 C   0  0  0  0  0  0  0  0  0  0  0  0
    0.1586   -6.8850   -0.5019 C   0  0  0  0  0  0  0  0  0  0  0  0
   -0.8111   -5.9219   -0.6499 N   0  0  0  0  0  0  0  0  0  0  0  0
   -1.6643   -6.0432   -1.0953 H   0  0  0  0  0  0  0  0  0  0  0  0
    3.6543   -9.1862    0.4135 C   0  0  0  0  0  0  0  0  0  0  0  0
   -9.5637    0.6333    0.9202 H   0  0  0  0  0  0  0  0  0  0  0  0
  -10.0196   -1.5811   -0.0556 H   0  0  0  0  0  0  0  0  0  0  0  0
   -8.4894   -3.4593    0.3848 H   0  0  0  0  0  0  0  0  0  0  0  0
   -6.0517   -0.9108    2.7832 H   0  0  0  0  0  0  0  0  0  0  0  0
   -7.5774    0.9695    2.3361 H   0  0  0  0  0  0  0  0  0  0  0  0
   -6.7960   -4.3844    1.8583 H   0  0  0  0  0  0  0  0  0  0  0  0
   -5.7763   -3.3197    2.8558 H   0  0  0  0  0  0  0  0  0  0  0  0
   -5.6141   -3.5230   -0.1841 H   0  0  0  0  0  0  0  0  0  0  0  0
   -4.8913   -5.6173    0.9495 H   0  0  0  0  0  0  0  0  0  0  0  0
   -3.7887   -4.6697    1.9774 H   0  0  0  0  0  0  0  0  0  0  0  0
   -3.6857   -4.9133   -1.0648 H   0  0  0  0  0  0  0  0  0  0  0  0
   -2.5187   -5.5943    0.0959 H   0  0  0  0  0  0  0  0  0  0  0  0
   -2.5445   -1.4005   -0.0508 H   0  0  0  0  0  0  0  0  0  0  0  0
   -3.7023   -2.1762   -1.1622 H   0  0  0  0  0  0  0  0  0  0  0  0
   -4.9166   -1.3408    0.7878 H   0  0  0  0  0  0  0  0  0  0  0  0
   -3.8033   -2.1949    1.8838 H   0  0  0  0  0  0  0  0  0  0  0  0
    1.4648   -4.2253    0.9864 H   0  0  0  0  0  0  0  0  0  0  0  0
    3.1939   -6.6203    1.0288 H   0  0  0  0  0  0  0  0  0  0  0  0
    1.4385   -9.9816   -0.9006 H   0  0  0  0  0  0  0  0  0  0  0  0
   -0.5721   -8.6794   -1.4289 H   0  0  0  0  0  0  0  0  0  0  0  0
    3.5255   -9.6735    1.3799 H   0  0  0  0  0  0  0  0  0  0  0  0
    3.0774  -10.8605   -0.6364 H   0  0  0  0  0  0  0  0  0  0  0  0
    3.9665   -9.7784   -1.5334 H   0  0  0  0  0  0  0  0  0  0  0  0
    4.6982   -7.5602    1.1241 H   0  0  0  0  0  0  0  0  0  0  0  0
    5.6663   -8.8345    0.6717 H   0  0  0  0  0  0  0  0  0  0  0  0
    3.8661  -10.2160   -0.6190 N   0  3  0  0  0  0  0  0  0  0  0  0
    4.7222  -10.7400   -0.4025 H   0  0  0  0  0  0  0  0  0  0  0  0
    4.8315   -8.3001    0.4368 N   0  3  0  0  0  0  0  0  0  0  0  0
    4.9543   -7.8775   -0.4909 H   0  0  0  0  0  0  0  0  0  0  0  0
  1  6  2  0  0  0  0
  1  2  1  0  0  0  0
  1 27  1  0  0  0  0
  2  3  2  0  0  0  0
  2 28  1  0  0  0  0
  3  4  1  0  0  0  0
  3 29  1  0  0  0  0
  4  5  2  0  0  0  0
  4  7  1  0  0  0  0
  5  6  1  0  0  0  0
  5 30  1  0  0  0  0
  6 31  1  0  0  0  0
  7  8  1  0  0  0  0
  7 32  1  0  0  0  0
  7 33  1  0  0  0  0
  8 13  1  0  0  0  0
  8  9  1  0  0  0  0
  8 34  1  0  0  0  0
  9 10  1  0  0  0  0
  9 35  1  0  0  0  0
  9 36  1  0  0  0  0
 10 11  1  0  0  0  0
 10 37  1  0  0  0  0
 10 38  1  0  0  0  0
 11 12  1  0  0  0  0
 11 14  1  0  0  0  0
 12 13  1  0  0  0  0
 12 39  1  0  0  0  0
 12 40  1  0  0  0  0
 13 41  1  0  0  0  0
 13 42  1  0  0  0  0
 14 15  2  0  0  0  0
 14 16  1  0  0  0  0
 16 24  1  0  0  0  0
 16 17  2  0  0  0  0
 17 18  1  0  0  0  0
 17 43  1  0  0  0  0
 18 23  2  0  0  0  0
 18 19  1  0  0  0  0
 19 20  2  0  0  0  0
 19 44  1  0  0  0  0
 20 21  1  0  0  0  0
 20 26  1  0  0  0  0
 21 22  2  0  0  0  0
 21 45  1  0  0  0  0
 22 23  1  0  0  0  0
 22 46  1  0  0  0  0
 23 24  1  0  0  0  0
 24 25  1  0  0  0  0
 26 47  1  0  0  0  0
 26 52  1  0  0  0  0
 26 54  1  0  0  0  0
 48 52  1  0  0  0  0
 49 52  1  0  0  0  0
 50 54  1  0  0  0  0
 51 54  1  0  0  0  0
 52 53  1  0  0  0  0
 54 55  1  0  0  0  0
M  CHG  2  52   1  54   1
M  END
$$$$
ZINC03834115
  -OEChem-08230709403D

 58 62  0     1  0  0  0  0  0999 V2000
   -4.5802    0.1476    3.8978 C   0  0  0  0  0  0  0  0  0  0  0  0
   -5.0351    0.4335    5.1710 C   0  0  0  0  0  0  0  0  0  0  0  0
   -5.8155    1.5559    5.3910 C   0  0  0  0  0  0  0  0  0  0  0  0
   -6.1347    2.3935    4.3358 C   0  0  0  0  0  0  0  0  0  0  0  0
   -5.6742    2.1084    3.0643 C   0  0  0  0  0  0  0  0  0  0  0  0
   -4.8952    0.9875    2.8459 C   0  0  0  0  0  0  0  0  0  0  0  0
   -4.3941    0.6775    1.4588 C   0  0  0  0  0  0  0  0  0  0  0  0
   -3.0936    1.3202    1.2544 N   0  0  0  0  0  0  0  0  0  0  0  0
   -1.9349    0.7178    1.5456 C   0  0  0  0  0  0  0  0  0  0  0  0
   -1.8214   -0.3987    2.0039 O   0  0  0  0  0  0  0  0  0  0  0  0
   -0.7887    1.6475    1.2136 C   0  0  1  0  0  0  0  0  0  0  0  0
   -0.1430    1.8521    2.0675 H   0  0  0  0  0  0  0  0  0  0  0  0
   -0.0127    1.0858    0.0080 C   0  0  2  0  0  0  0  0  0  0  0  0
    0.0021   -0.0041    0.0020 H   0  0  0  0  0  0  0  0  0  0  0  0
    1.4069    1.6843   -0.0023 C   0  0  0  0  0  0  0  0  0  0  0  0
    1.6711    2.0871   -1.4667 C   0  0  0  0  0  0  0  0  0  0  0  0
    0.3948    1.6814   -2.2322 C   0  0  0  0  0  0  0  0  0  0  0  0
   -1.0380    3.0332   -0.8260 C   0  0  2  0  0  0  0  0  0  0  0  0
   -0.1732    3.6899   -0.9207 H   0  0  0  0  0  0  0  0  0  0  0  0
   -1.4838    2.9457    0.6464 C   0  0  1  0  0  0  0  0  0  0  0  0
   -1.2276    3.8401    1.2143 H   0  0  0  0  0  0  0  0  0  0  0  0
   -2.9596    2.6229    0.7066 C   0  0  0  0  0  0  0  0  0  0  0  0
   -3.8539    3.3640    0.3596 O   0  0  0  0  0  0  0  0  0  0  0  0
   -2.1706    3.5316   -1.6862 C   0  0  0  0  0  0  0  0  0  0  0  0
   -3.1948    2.6753   -2.0448 C   0  0  0  0  0  0  0  0  0  0  0  0
   -4.2362    3.1338   -2.8297 C   0  0  0  0  0  0  0  0  0  0  0  0
   -4.2483    4.4460   -3.2644 C   0  0  0  0  0  0  0  0  0  0  0  0
   -3.2212    5.3008   -2.9105 C   0  0  0  0  0  0  0  0  0  0  0  0
   -2.1825    4.8437   -2.1212 C   0  0  0  0  0  0  0  0  0  0  0  0
   -5.3809    4.9444   -4.1244 C   0  0  0  0  0  0  0  0  0  0  0  0
   -6.2647    1.8338    6.6345 F   0  0  0  0  0  0  0  0  0  0  0  0
   -3.9749   -0.7301    3.7252 H   0  0  0  0  0  0  0  0  0  0  0  0
   -4.7855   -0.2205    5.9934 H   0  0  0  0  0  0  0  0  0  0  0  0
   -6.7430    3.2695    4.5062 H   0  0  0  0  0  0  0  0  0  0  0  0
   -5.9234    2.7614    2.2409 H   0  0  0  0  0  0  0  0  0  0  0  0
   -5.1050    1.0537    0.7232 H   0  0  0  0  0  0  0  0  0  0  0  0
   -4.2884   -0.4012    1.3434 H   0  0  0  0  0  0  0  0  0  0  0  0
    1.4516    2.5608    0.6441 H   0  0  0  0  0  0  0  0  0  0  0  0
    2.1332    0.9387    0.3209 H   0  0  0  0  0  0  0  0  0  0  0  0
    1.8306    3.1628   -1.5404 H   0  0  0  0  0  0  0  0  0  0  0  0
    2.5352    1.5495   -1.8570 H   0  0  0  0  0  0  0  0  0  0  0  0
    0.1618    2.4208   -2.9984 H   0  0  0  0  0  0  0  0  0  0  0  0
    0.5205    0.6969   -2.6829 H   0  0  0  0  0  0  0  0  0  0  0  0
   -3.1832    1.6490   -1.7086 H   0  0  0  0  0  0  0  0  0  0  0  0
   -5.0384    2.4658   -3.1065 H   0  0  0  0  0  0  0  0  0  0  0  0
   -3.2305    6.3259   -3.2503 H   0  0  0  0  0  0  0  0  0  0  0  0
   -1.3800    5.5115   -1.8447 H   0  0  0  0  0  0  0  0  0  0  0  0
   -5.1347    4.7898   -5.1749 H   0  0  0  0  0  0  0  0  0  0  0  0
   -6.8570    4.3335   -2.8258 H   0  0  0  0  0  0  0  0  0  0  0  0
   -7.3664    4.4766   -4.4024 H   0  0  0  0  0  0  0  0  0  0  0  0
   -4.7413    6.8992   -4.0338 H   0  0  0  0  0  0  0  0  0  0  0  0
   -6.3453    6.7355   -4.4418 H   0  0  0  0  0  0  0  0  0  0  0  0
   -0.6282    1.6630   -1.1694 N   0  3  2  0  0  0  0  0  0  0  0  0
   -1.4418    1.1118   -1.4667 H   0  0  0  0  0  0  0  0  0  0  0  0
   -6.5996    4.1824   -3.7998 N   0  3  0  0  0  0  0  0  0  0  0  0
   -6.4218    3.1821   -3.9480 H   0  0  0  0  0  0  0  0  0  0  0  0
   -5.5965    6.3764   -3.8518 N   0  3  0  0  0  0  0  0  0  0  0  0
   -5.8593    6.4966   -2.8666 H   0  0  0  0  0  0  0  0  0  0  0  0
  1  6  2  0  0  0  0
  1  2  1  0  0  0  0
  1 32  1  0  0  0  0
  2  3  2  0  0  0  0
  2 33  1  0  0  0  0
  3  4  1  0  0  0  0
  3 31  1  0  0  0  0
  4  5  2  0  0  0  0
  4 34  1  0  0  0  0
  5  6  1  0  0  0  0
  5 35  1  0  0  0  0
  6  7  1  0  0  0  0
  7  8  1  0  0  0  0
  7 36  1  0  0  0  0
  7 37  1  0  0  0  0
  8 22  1  0  0  0  0
  8  9  1  0  0  0  0
  9 10  2  0  0  0  0
  9 11  1  0  0  0  0
 11 12  1  0  0  0  0
 11 20  1  0  0  0  0
 11 13  1  0  0  0  0
 13 14  1  0  0  0  0
 13 15  1  0  0  0  0
 13 53  1  0  0  0  0
 15 16  1  0  0  0  0
 15 38  1  0  0  0  0
 15 39  1  0  0  0  0
 16 17  1  0  0  0  0
 16 40  1  0  0  0  0
 16 41  1  0  0  0  0
 17 42  1  0  0  0  0
 17 43  1  0  0  0  0
 17 53  1  0  0  0  0
 18 19  1  0  0  0  0
 18 20  1  0  0  0  0
 18 24  1  0  0  0  0
 18 53  1  0  0  0  0
 20 21  1  0  0  0  0
 20 22  1  0  0  0  0
 22 23  2  0  0  0  0
 24 29  2  0  0  0  0
 24 25  1  0  0  0  0
 25 26  2  0  0  0  0
 25 44  1  0  0  0  0
 26 27  1  0  0  0  0
 26 45  1  0  0  0  0
 27 28  2  0  0  0  0
 27 30  1  0  0  0  0
 28 29  1  0  0  0  0
 28 46  1  0  0  0  0
 29 47  1  0  0  0  0
 30 48  1  0  0  0  0
 30 55  1  0  0  0  0
 30 57  1  0  0  0  0
 49 55  1  0  0  0  0
 50 55  1  0  0  0  0
 51 57  1  0  0  0  0
 52 57  1  0  0  0  0
 53 54  1  0  0  0  0
 55 56  1  0  0  0  0
 57 58  1  0  0  0  0
M  CHG  3  53   1  55   1  57   1
M  END
$$$$
ZINC03834116
  -OEChem-08230709403D

 75 78  0     1  0  0  0  0  0999 V2000
   -0.1304   -2.7733   11.5893 H   0  0  0  0  0  0  0  0  0  0  0  0
    0.7749   -1.0041   11.1484 C   0  0  0  0  0  0  0  0  0  0  0  0
    1.6733   -0.3509   10.1691 C   0  0  0  0  0  0  0  0  0  0  0  0
    2.0217    0.9906   10.3245 C   0  0  0  0  0  0  0  0  0  0  0  0
    2.8596    1.5934    9.4090 C   0  0  0  0  0  0  0  0  0  0  0  0
    3.3585    0.8682    8.3415 C   0  0  0  0  0  0  0  0  0  0  0  0
    3.0119   -0.4609    8.1787 C   0  0  0  0  0  0  0  0  0  0  0  0
    2.1747   -1.0749    9.0879 C   0  0  0  0  0  0  0  0  0  0  0  0
    3.5548   -1.2417    7.0097 C   0  0  0  0  0  0  0  0  0  0  0  0
    2.5958   -1.1177    5.8240 C   0  0  1  0  0  0  0  0  0  0  0  0
    2.4393   -0.0641    5.5921 H   0  0  0  0  0  0  0  0  0  0  0  0
    3.1867   -1.8135    4.6250 C   0  0  0  0  0  0  0  0  0  0  0  0
    2.7652   -2.8988    4.2851 O   0  0  0  0  0  0  0  0  0  0  0  0
    4.1834   -1.2299    3.9304 N   0  0  0  0  0  0  0  0  0  0  0  0
    4.6797   -1.8323    2.6852 C   0  0  0  0  0  0  0  0  0  0  0  0
    4.5870   -0.7806    1.5666 C   0  0  0  0  0  0  0  0  0  0  0  0
    5.2011    0.4663    2.0441 N   0  0  0  0  0  0  0  0  0  0  0  0
    4.7085    1.0657    3.2923 C   0  0  0  0  0  0  0  0  0  0  0  0
    4.7974    0.0170    4.4080 C   0  0  0  0  0  0  0  0  0  0  0  0
    6.4257    1.1835    1.1907 S   0  0  0  0  0  0  0  0  0  0  0  0
    6.2300    0.7583   -0.1510 O   0  0  0  0  0  0  0  0  0  0  0  0
    6.3482    2.5604    1.5330 O   0  0  0  0  0  0  0  0  0  0  0  0
    7.9475    0.4579    1.8604 C   0  0  0  0  0  0  0  0  0  0  0  0
    1.3135   -1.7382    6.1661 N   0  0  0  0  0  0  0  0  0  0  0  0
   -0.0671   -0.8240    6.1954 S   0  0  0  0  0  0  0  0  0  0  0  0
    0.2255    0.3286    6.9731 O   0  0  0  0  0  0  0  0  0  0  0  0
   -1.1328   -1.7081    6.5146 O   0  0  0  0  0  0  0  0  0  0  0  0
   -0.3547   -0.2619    4.5504 C   0  0  0  0  0  0  0  0  0  0  0  0
   -0.3136    1.0687    4.2650 C   0  0  0  0  0  0  0  0  0  0  0  0
   -0.5384    1.5315    2.9706 C   0  0  0  0  0  0  0  0  0  0  0  0
   -0.8053    0.6658    1.9535 C   0  0  0  0  0  0  0  0  0  0  0  0
   -0.8494   -0.7133    2.2088 C   0  0  0  0  0  0  0  0  0  0  0  0
   -0.6271   -1.1847    3.5261 C   0  0  0  0  0  0  0  0  0  0  0  0
   -0.6777   -2.5655    3.7846 C   0  0  0  0  0  0  0  0  0  0  0  0
   -0.9444   -3.4370    2.7733 C   0  0  0  0  0  0  0  0  0  0  0  0
   -1.1703   -2.9857    1.4761 C   0  0  0  0  0  0  0  0  0  0  0  0
   -1.1296   -1.6398    1.1810 C   0  0  0  0  0  0  0  0  0  0  0  0
   -1.3571   -1.1983   -0.1206 N   0  0  0  0  0  0  0  0  0  0  0  0
   -2.6935   -1.5940   -0.5846 C   0  0  0  0  0  0  0  0  0  0  0  0
   -0.3161   -1.6903   -1.0329 C   0  0  0  0  0  0  0  0  0  0  0  0
    0.2809   -0.2862   12.2157 N   0  0  0  0  0  0  0  0  0  0  0  0
    1.6368    1.5563   11.1602 H   0  0  0  0  0  0  0  0  0  0  0  0
    3.1299    2.6322    9.5282 H   0  0  0  0  0  0  0  0  0  0  0  0
    4.0176    1.3433    7.6298 H   0  0  0  0  0  0  0  0  0  0  0  0
    1.9081   -2.1138    8.9620 H   0  0  0  0  0  0  0  0  0  0  0  0
    3.6542   -2.2909    7.2883 H   0  0  0  0  0  0  0  0  0  0  0  0
    4.5311   -0.8460    6.7302 H   0  0  0  0  0  0  0  0  0  0  0  0
    5.7170   -2.1405    2.8161 H   0  0  0  0  0  0  0  0  0  0  0  0
    4.0682   -2.6971    2.4280 H   0  0  0  0  0  0  0  0  0  0  0  0
    3.5416   -0.6009    1.3159 H   0  0  0  0  0  0  0  0  0  0  0  0
    5.1191   -1.1358    0.6840 H   0  0  0  0  0  0  0  0  0  0  0  0
    3.6717    1.3768    3.1644 H   0  0  0  0  0  0  0  0  0  0  0  0
    5.3201    1.9295    3.5527 H   0  0  0  0  0  0  0  0  0  0  0  0
    4.2634    0.3738    5.2888 H   0  0  0  0  0  0  0  0  0  0  0  0
    5.8428   -0.1627    4.6587 H   0  0  0  0  0  0  0  0  0  0  0  0
    7.9311   -0.6218    1.7120 H   0  0  0  0  0  0  0  0  0  0  0  0
    8.8095    0.8824    1.3457 H   0  0  0  0  0  0  0  0  0  0  0  0
    8.0163    0.6773    2.9258 H   0  0  0  0  0  0  0  0  0  0  0  0
    1.2731   -2.6845    6.3754 H   0  0  0  0  0  0  0  0  0  0  0  0
   -0.1040    1.7757    5.0540 H   0  0  0  0  0  0  0  0  0  0  0  0
   -0.5002    2.5921    2.7704 H   0  0  0  0  0  0  0  0  0  0  0  0
   -0.9780    1.0386    0.9548 H   0  0  0  0  0  0  0  0  0  0  0  0
   -0.5048   -2.9347    4.7846 H   0  0  0  0  0  0  0  0  0  0  0  0
   -0.9809   -4.4962    2.9809 H   0  0  0  0  0  0  0  0  0  0  0  0
   -1.3801   -3.6981    0.6919 H   0  0  0  0  0  0  0  0  0  0  0  0
   -3.4490   -1.1583    0.0692 H   0  0  0  0  0  0  0  0  0  0  0  0
   -2.7784   -2.6805   -0.5642 H   0  0  0  0  0  0  0  0  0  0  0  0
   -2.8450   -1.2368   -1.6032 H   0  0  0  0  0  0  0  0  0  0  0  0
   -0.4781   -1.2742   -2.0272 H   0  0  0  0  0  0  0  0  0  0  0  0
    0.6633   -1.3835   -0.6659 H   0  0  0  0  0  0  0  0  0  0  0  0
   -0.3610   -2.7782   -1.0826 H   0  0  0  0  0  0  0  0  0  0  0  0
    0.5218    0.6470   12.3255 H   0  0  0  0  0  0  0  0  0  0  0  0
   -0.3076   -0.7139   12.8572 H   0  0  0  0  0  0  0  0  0  0  0  0
    0.4843   -2.2793   10.9423 N   0  3  0  0  0  0  0  0  0  0  0  0
    0.8777   -2.7709   10.1313 H   0  0  0  0  0  0  0  0  0  0  0  0
  1 74  1  0  0  0  0
  2  3  1  0  0  0  0
  2 41  1  0  0  0  0
  2 74  2  0  0  0  0
  3  8  2  0  0  0  0
  3  4  1  0  0  0  0
  4  5  2  0  0  0  0
  4 42  1  0  0  0  0
  5  6  1  0  0  0  0
  5 43  1  0  0  0  0
  6  7  2  0  0  0  0
  6 44  1  0  0  0  0
  7  8  1  0  0  0  0
  7  9  1  0  0  0  0
  8 45  1  0  0  0  0
  9 10  1  0  0  0  0
  9 46  1  0  0  0  0
  9 47  1  0  0  0  0
 10 11  1  0  0  0  0
 10 12  1  0  0  0  0
 10 24  1  0  0  0  0
 12 13  2  0  0  0  0
 12 14  1  0  0  0  0
 14 19  1  0  0  0  0
 14 15  1  0  0  0  0
 15 16  1  0  0  0  0
 15 48  1  0  0  0  0
 15 49  1  0  0  0  0
 16 17  1  0  0  0  0
 16 50  1  0  0  0  0
 16 51  1  0  0  0  0
 17 18  1  0  0  0  0
 17 20  1  0  0  0  0
 18 19  1  0  0  0  0
 18 52  1  0  0  0  0
 18 53  1  0  0  0  0
 19 54  1  0  0  0  0
 19 55  1  0  0  0  0
 20 21  2  0  0  0  0
 20 22  2  0  0  0  0
 20 23  1  0  0  0  0
 23 56  1  0  0  0  0
 23 57  1  0  0  0  0
 23 58  1  0  0  0  0
 24 25  1  0  0  0  0
 24 59  1  0  0  0  0
 25 26  2  0  0  0  0
 25 27  2  0  0  0  0
 25 28  1  0  0  0  0
 28 33  2  0  0  0  0
 28 29  1  0  0  0  0
 29 30  2  0  0  0  0
 29 60  1  0  0  0  0
 30 31  1  0  0  0  0
 30 61  1  0  0  0  0
 31 32  2  0  0  0  0
 31 62  1  0  0  0  0
 32 37  1  0  0  0  0
 32 33  1  0  0  0  0
 33 34  1  0  0  0  0
 34 35  2  0  0  0  0
 34 63  1  0  0  0  0
 35 36  1  0  0  0  0
 35 64  1  0  0  0  0
 36 37  2  0  0  0  0
 36 65  1  0  0  0  0
 37 38  1  0  0  0  0
 38 39  1  0  0  0  0
 38 40  1  0  0  0  0
 39 66  1  0  0  0  0
 39 67  1  0  0  0  0
 39 68  1  0  0  0  0
 40 69  1  0  0  0  0
 40 70  1  0  0  0  0
 40 71  1  0  0  0  0
 41 72  1  0  0  0  0
 41 73  1  0  0  0  0
 74 75  1  0  0  0  0
M  CHG  1  74   1
M  END
$$$$
ZINC03834117
  -OEChem-08230709403D

 73 75  0     1  0  0  0  0  0999 V2000
    4.5191    2.4725    0.7082 H   0  0  0  0  0  0  0  0  0  0  0  0
    2.5256    2.7270    0.3831 C   0  0  0  0  0  0  0  0  0  0  0  0
    1.2652    1.9862    0.1478 C   0  0  0  0  0  0  0  0  0  0  0  0
    0.0681    2.6797   -0.0301 C   0  0  0  0  0  0  0  0  0  0  0  0
   -1.1030    1.9838   -0.2490 C   0  0  0  0  0  0  0  0  0  0  0  0
   -1.0916    0.6009   -0.2923 C   0  0  0  0  0  0  0  0  0  0  0  0
    0.0924   -0.0924   -0.1170 C   0  0  0  0  0  0  0  0  0  0  0  0
    1.2703    0.5925    0.1026 C   0  0  0  0  0  0  0  0  0  0  0  0
    0.0963   -1.5985   -0.1666 C   0  0  0  0  0  0  0  0  0  0  0  0
    0.3358   -2.0608   -1.6053 C   0  0  1  0  0  0  0  0  0  0  0  0
    1.3125   -1.7125   -1.9410 H   0  0  0  0  0  0  0  0  0  0  0  0
    0.2922   -3.5661   -1.6630 C   0  0  0  0  0  0  0  0  0  0  0  0
   -0.6276   -4.1252   -2.2217 O   0  0  0  0  0  0  0  0  0  0  0  0
    1.2755   -4.2911   -1.0937 N   0  0  0  0  0  0  0  0  0  0  0  0
    1.3080   -5.7529   -1.2407 C   0  0  0  0  0  0  0  0  0  0  0  0
    2.6733   -6.1517   -1.8261 C   0  0  0  0  0  0  0  0  0  0  0  0
    3.7287   -5.4952   -1.0420 N   0  0  0  0  0  0  0  0  0  0  0  0
    3.6931   -4.0337   -0.8903 C   0  0  0  0  0  0  0  0  0  0  0  0
    2.3309   -3.6344   -0.3096 C   0  0  0  0  0  0  0  0  0  0  0  0
    4.9368   -6.3858   -0.3425 S   0  0  0  0  0  0  0  0  0  0  0  0
    5.0367   -7.5546   -1.1447 O   0  0  0  0  0  0  0  0  0  0  0  0
    6.0323   -5.4874   -0.2319 O   0  0  0  0  0  0  0  0  0  0  0  0
    4.3084   -6.8109    1.3052 C   0  0  0  0  0  0  0  0  0  0  0  0
   -0.7053   -1.5084   -2.4754 N   0  0  0  0  0  0  0  0  0  0  0  0
   -0.4323   -0.0995   -3.3016 S   0  0  0  0  0  0  0  0  0  0  0  0
   -1.6022    0.1560   -4.0666 O   0  0  0  0  0  0  0  0  0  0  0  0
    0.0794    0.8319   -2.3582 O   0  0  0  0  0  0  0  0  0  0  0  0
    0.8638   -0.4135   -4.4531 C   0  0  0  0  0  0  0  0  0  0  0  0
    2.1802   -0.2064   -4.0855 C   0  0  0  0  0  0  0  0  0  0  0  0
    3.1974   -0.4570   -4.9875 C   0  0  0  0  0  0  0  0  0  0  0  0
    2.8975   -0.9056   -6.2602 C   0  0  0  0  0  0  0  0  0  0  0  0
    1.5808   -1.1081   -6.6294 C   0  0  0  0  0  0  0  0  0  0  0  0
    0.5640   -0.8616   -5.7260 C   0  0  0  0  0  0  0  0  0  0  0  0
    4.0061   -1.1742   -7.2451 C   0  0  0  0  0  0  0  0  0  0  0  0
    3.8249   -0.2801   -8.4733 C   0  0  0  0  0  0  0  0  0  0  0  0
    5.3551   -0.8726   -6.5892 C   0  0  0  0  0  0  0  0  0  0  0  0
    3.9638   -2.6426   -7.6725 C   0  0  0  0  0  0  0  0  0  0  0  0
    2.5174    4.1041    0.4271 N   0  0  0  0  0  0  0  0  0  0  0  0
    0.0580    3.7591    0.0031 H   0  0  0  0  0  0  0  0  0  0  0  0
   -2.0297    2.5199   -0.3913 H   0  0  0  0  0  0  0  0  0  0  0  0
   -2.0108    0.0606   -0.4639 H   0  0  0  0  0  0  0  0  0  0  0  0
    2.1941    0.0501    0.2397 H   0  0  0  0  0  0  0  0  0  0  0  0
    0.8901   -1.9811    0.4750 H   0  0  0  0  0  0  0  0  0  0  0  0
   -0.8654   -1.9760    0.1811 H   0  0  0  0  0  0  0  0  0  0  0  0
    1.1739   -6.2217   -0.2658 H   0  0  0  0  0  0  0  0  0  0  0  0
    0.5124   -6.0707   -1.9147 H   0  0  0  0  0  0  0  0  0  0  0  0
    2.7362   -5.8304   -2.8657 H   0  0  0  0  0  0  0  0  0  0  0  0
    2.7950   -7.2335   -1.7696 H   0  0  0  0  0  0  0  0  0  0  0  0
    3.8287   -3.5616   -1.8633 H   0  0  0  0  0  0  0  0  0  0  0  0
    4.4866   -3.7141   -0.2149 H   0  0  0  0  0  0  0  0  0  0  0  0
    2.2111   -2.5527   -0.3686 H   0  0  0  0  0  0  0  0  0  0  0  0
    2.2661   -3.9535    0.7306 H   0  0  0  0  0  0  0  0  0  0  0  0
    3.3886   -7.3871    1.2057 H   0  0  0  0  0  0  0  0  0  0  0  0
    5.0531   -7.4040    1.8362 H   0  0  0  0  0  0  0  0  0  0  0  0
    4.1062   -5.8970    1.8638 H   0  0  0  0  0  0  0  0  0  0  0  0
   -1.5545   -1.9680   -2.5676 H   0  0  0  0  0  0  0  0  0  0  0  0
    2.4142    0.1480   -3.0925 H   0  0  0  0  0  0  0  0  0  0  0  0
    4.2260   -0.2991   -4.6989 H   0  0  0  0  0  0  0  0  0  0  0  0
    1.3467   -1.4585   -7.6237 H   0  0  0  0  0  0  0  0  0  0  0  0
   -0.4647   -1.0195   -6.0146 H   0  0  0  0  0  0  0  0  0  0  0  0
    3.8551    0.7661   -8.1688 H   0  0  0  0  0  0  0  0  0  0  0  0
    4.6267   -0.4744   -9.1857 H   0  0  0  0  0  0  0  0  0  0  0  0
    2.8639   -0.4949   -8.9405 H   0  0  0  0  0  0  0  0  0  0  0  0
    5.4842   -1.5096   -5.7142 H   0  0  0  0  0  0  0  0  0  0  0  0
    6.1570   -1.0669   -7.3016 H   0  0  0  0  0  0  0  0  0  0  0  0
    5.3852    0.1735   -6.2847 H   0  0  0  0  0  0  0  0  0  0  0  0
    3.0027   -2.8575   -8.1397 H   0  0  0  0  0  0  0  0  0  0  0  0
    4.7656   -2.8369   -8.3849 H   0  0  0  0  0  0  0  0  0  0  0  0
    4.0929   -3.2796   -6.7974 H   0  0  0  0  0  0  0  0  0  0  0  0
    1.6860    4.5883    0.3040 H   0  0  0  0  0  0  0  0  0  0  0  0
    3.3430    4.5893    0.5813 H   0  0  0  0  0  0  0  0  0  0  0  0
    3.6258    2.0081    0.5434 N   0  3  0  0  0  0  0  0  0  0  0  0
    3.5800    0.9832    0.5018 H   0  0  0  0  0  0  0  0  0  0  0  0
  1 72  1  0  0  0  0
  2  3  1  0  0  0  0
  2 38  1  0  0  0  0
  2 72  2  0  0  0  0
  3  8  2  0  0  0  0
  3  4  1  0  0  0  0
  4  5  2  0  0  0  0
  4 39  1  0  0  0  0
  5  6  1  0  0  0  0
  5 40  1  0  0  0  0
  6  7  2  0  0  0  0
  6 41  1  0  0  0  0
  7  8  1  0  0  0  0
  7  9  1  0  0  0  0
  8 42  1  0  0  0  0
  9 10  1  0  0  0  0
  9 43  1  0  0  0  0
  9 44  1  0  0  0  0
 10 11  1  0  0  0  0
 10 12  1  0  0  0  0
 10 24  1  0  0  0  0
 12 13  2  0  0  0  0
 12 14  1  0  0  0  0
 14 19  1  0  0  0  0
 14 15  1  0  0  0  0
 15 16  1  0  0  0  0
 15 45  1  0  0  0  0
 15 46  1  0  0  0  0
 16 17  1  0  0  0  0
 16 47  1  0  0  0  0
 16 48  1  0  0  0  0
 17 18  1  0  0  0  0
 17 20  1  0  0  0  0
 18 19  1  0  0  0  0
 18 49  1  0  0  0  0
 18 50  1  0  0  0  0
 19 51  1  0  0  0  0
 19 52  1  0  0  0  0
 20 21  2  0  0  0  0
 20 22  2  0  0  0  0
 20 23  1  0  0  0  0
 23 53  1  0  0  0  0
 23 54  1  0  0  0  0
 23 55  1  0  0  0  0
 24 25  1  0  0  0  0
 24 56  1  0  0  0  0
 25 26  2  0  0  0  0
 25 27  2  0  0  0  0
 25 28  1  0  0  0  0
 28 33  2  0  0  0  0
 28 29  1  0  0  0  0
 29 30  2  0  0  0  0
 29 57  1  0  0  0  0
 30 31  1  0  0  0  0
 30 58  1  0  0  0  0
 31 32  2  0  0  0  0
 31 34  1  0  0  0  0
 32 33  1  0  0  0  0
 32 59  1  0  0  0  0
 33 60  1  0  0  0  0
 34 35  1  0  0  0  0
 34 36  1  0  0  0  0
 34 37  1  0  0  0  0
 35 61  1  0  0  0  0
 35 62  1  0  0  0  0
 35 63  1  0  0  0  0
 36 64  1  0  0  0  0
 36 65  1  0  0  0  0
 36 66  1  0  0  0  0
 37 67  1  0  0  0  0
 37 68  1  0  0  0  0
 37 69  1  0  0  0  0
 38 70  1  0  0  0  0
 38 71  1  0  0  0  0
 72 73  1  0  0  0  0
M  CHG  1  72   1
M  END
$$$$
ZINC03834118
  -OEChem-08230709403D

 71 73  0     1  0  0  0  0  0999 V2000
   -2.0280    3.2238   -0.3360 H   0  0  0  0  0  0  0  0  0  0  0  0
   -0.3889    2.0276   -0.1730 C   0  0  0  0  0  0  0  0  0  0  0  0
    0.0316    0.6118   -0.0637 C   0  0  0  0  0  0  0  0  0  0  0  0
    1.3857    0.2881    0.0190 C   0  0  0  0  0  0  0  0  0  0  0  0
    1.7711   -1.0324    0.1274 C   0  0  0  0  0  0  0  0  0  0  0  0
    0.8178   -2.0351    0.1412 C   0  0  0  0  0  0  0  0  0  0  0  0
   -0.5262   -1.7207    0.0534 C   0  0  0  0  0  0  0  0  0  0  0  0
   -0.9244   -0.4032   -0.0487 C   0  0  0  0  0  0  0  0  0  0  0  0
   -1.5580   -2.8189    0.0697 C   0  0  0  0  0  0  0  0  0  0  0  0
   -1.8347   -3.2801   -1.3627 C   0  0  1  0  0  0  0  0  0  0  0  0
   -0.8972   -3.5657   -1.8398 H   0  0  0  0  0  0  0  0  0  0  0  0
   -2.7670   -4.4639   -1.3381 C   0  0  0  0  0  0  0  0  0  0  0  0
   -3.9542   -4.3049   -1.5285 O   0  0  0  0  0  0  0  0  0  0  0  0
   -2.2815   -5.6992   -1.1045 N   0  0  0  0  0  0  0  0  0  0  0  0
   -0.8646   -5.8956   -0.7687 C   0  0  0  0  0  0  0  0  0  0  0  0
   -0.2638   -6.9222   -1.7273 C   0  0  0  0  0  0  0  0  0  0  0  0
   -1.1019   -8.2022   -1.6912 C   0  0  0  0  0  0  0  0  0  0  0  0
   -2.5299   -7.8920   -2.1460 C   0  0  0  0  0  0  0  0  0  0  0  0
   -3.1576   -6.8758   -1.1867 C   0  0  0  0  0  0  0  0  0  0  0  0
   -0.4837   -9.2428   -2.6270 C   0  0  0  0  0  0  0  0  0  0  0  0
   -2.4532   -2.1869   -2.1168 N   0  0  0  0  0  0  0  0  0  0  0  0
   -2.1079   -1.9909   -3.7245 S   0  0  0  0  0  0  0  0  0  0  0  0
   -2.8716   -0.8790   -4.1714 O   0  0  0  0  0  0  0  0  0  0  0  0
   -0.6929   -2.0410   -3.8449 O   0  0  0  0  0  0  0  0  0  0  0  0
   -2.7355   -3.4047   -4.5683 C   0  0  0  0  0  0  0  0  0  0  0  0
   -1.9326   -4.5156   -4.7474 C   0  0  0  0  0  0  0  0  0  0  0  0
   -2.4264   -5.6265   -5.4055 C   0  0  0  0  0  0  0  0  0  0  0  0
   -3.7200   -5.6227   -5.8929 C   0  0  0  0  0  0  0  0  0  0  0  0
   -4.5213   -4.5099   -5.7181 C   0  0  0  0  0  0  0  0  0  0  0  0
   -4.0289   -3.4007   -5.0561 C   0  0  0  0  0  0  0  0  0  0  0  0
   -4.2568   -6.8319   -6.6146 C   0  0  0  0  0  0  0  0  0  0  0  0
   -4.6599   -6.4394   -8.0374 C   0  0  0  0  0  0  0  0  0  0  0  0
   -3.1763   -7.9137   -6.6707 C   0  0  0  0  0  0  0  0  0  0  0  0
   -5.4792   -7.3702   -5.8684 C   0  0  0  0  0  0  0  0  0  0  0  0
    0.5580    3.0283   -0.1875 N   0  0  0  0  0  0  0  0  0  0  0  0
    2.1310    1.0696    0.0034 H   0  0  0  0  0  0  0  0  0  0  0  0
    2.8191   -1.2840    0.1966 H   0  0  0  0  0  0  0  0  0  0  0  0
    1.1245   -3.0675    0.2214 H   0  0  0  0  0  0  0  0  0  0  0  0
   -1.9741   -0.1589   -0.1166 H   0  0  0  0  0  0  0  0  0  0  0  0
   -1.1856   -3.6588    0.6563 H   0  0  0  0  0  0  0  0  0  0  0  0
   -2.4798   -2.4449    0.5153 H   0  0  0  0  0  0  0  0  0  0  0  0
   -0.3314   -4.9501   -0.8671 H   0  0  0  0  0  0  0  0  0  0  0  0
   -0.7789   -6.2612    0.2545 H   0  0  0  0  0  0  0  0  0  0  0  0
    0.7589   -7.1484   -1.4257 H   0  0  0  0  0  0  0  0  0  0  0  0
   -0.2640   -6.5156   -2.7386 H   0  0  0  0  0  0  0  0  0  0  0  0
   -1.1218   -8.5945   -0.6744 H   0  0  0  0  0  0  0  0  0  0  0  0
   -3.1201   -8.8083   -2.1424 H   0  0  0  0  0  0  0  0  0  0  0  0
   -2.5086   -7.4762   -3.1534 H   0  0  0  0  0  0  0  0  0  0  0  0
   -3.2626   -7.3230   -0.1982 H   0  0  0  0  0  0  0  0  0  0  0  0
   -4.1368   -6.5768   -1.5607 H   0  0  0  0  0  0  0  0  0  0  0  0
   -0.4642   -8.8509   -3.6440 H   0  0  0  0  0  0  0  0  0  0  0  0
    0.5333   -9.4640   -2.3033 H   0  0  0  0  0  0  0  0  0  0  0  0
   -1.0799  -10.1550   -2.6006 H   0  0  0  0  0  0  0  0  0  0  0  0
   -3.0650   -1.5779   -1.6744 H   0  0  0  0  0  0  0  0  0  0  0  0
   -0.9206   -4.5170   -4.3701 H   0  0  0  0  0  0  0  0  0  0  0  0
   -1.8006   -6.4960   -5.5419 H   0  0  0  0  0  0  0  0  0  0  0  0
   -5.5319   -4.5070   -6.0989 H   0  0  0  0  0  0  0  0  0  0  0  0
   -4.6548   -2.5313   -4.9199 H   0  0  0  0  0  0  0  0  0  0  0  0
   -3.7892   -6.0559   -8.5691 H   0  0  0  0  0  0  0  0  0  0  0  0
   -5.0482   -7.3141   -8.5594 H   0  0  0  0  0  0  0  0  0  0  0  0
   -5.4297   -5.6688   -7.9974 H   0  0  0  0  0  0  0  0  0  0  0  0
   -2.8891   -8.1933   -5.6571 H   0  0  0  0  0  0  0  0  0  0  0  0
   -3.5645   -8.7883   -7.1927 H   0  0  0  0  0  0  0  0  0  0  0  0
   -2.3055   -7.5302   -7.2024 H   0  0  0  0  0  0  0  0  0  0  0  0
   -6.2489   -6.5996   -5.8284 H   0  0  0  0  0  0  0  0  0  0  0  0
   -5.8674   -8.2448   -6.3903 H   0  0  0  0  0  0  0  0  0  0  0  0
   -5.1919   -7.6498   -4.8547 H   0  0  0  0  0  0  0  0  0  0  0  0
    1.5001    2.8056   -0.1261 H   0  0  0  0  0  0  0  0  0  0  0  0
    0.2825    3.9556   -0.2591 H   0  0  0  0  0  0  0  0  0  0  0  0
   -1.6886    2.2649   -0.2590 N   0  3  0  0  0  0  0  0  0  0  0  0
   -2.3549    1.4837   -0.2483 H   0  0  0  0  0  0  0  0  0  0  0  0
  1 70  1  0  0  0  0
  2  3  1  0  0  0  0
  2 35  1  0  0  0  0
  2 70  2  0  0  0  0
  3  8  2  0  0  0  0
  3  4  1  0  0  0  0
  4  5  2  0  0  0  0
  4 36  1  0  0  0  0
  5  6  1  0  0  0  0
  5 37  1  0  0  0  0
  6  7  2  0  0  0  0
  6 38  1  0  0  0  0
  7  8  1  0  0  0  0
  7  9  1  0  0  0  0
  8 39  1  0  0  0  0
  9 10  1  0  0  0  0
  9 40  1  0  0  0  0
  9 41  1  0  0  0  0
 10 11  1  0  0  0  0
 10 12  1  0  0  0  0
 10 21  1  0  0  0  0
 12 13  2  0  0  0  0
 12 14  1  0  0  0  0
 14 19  1  0  0  0  0
 14 15  1  0  0  0  0
 15 16  1  0  0  0  0
 15 42  1  0  0  0  0
 15 43  1  0  0  0  0
 16 17  1  0  0  0  0
 16 44  1  0  0  0  0
 16 45  1  0  0  0  0
 17 18  1  0  0  0  0
 17 20  1  0  0  0  0
 17 46  1  0  0  0  0
 18 19  1  0  0  0  0
 18 47  1  0  0  0  0
 18 48  1  0  0  0  0
 19 49  1  0  0  0  0
 19 50  1  0  0  0  0
 20 51  1  0  0  0  0
 20 52  1  0  0  0  0
 20 53  1  0  0  0  0
 21 22  1  0  0  0  0
 21 54  1  0  0  0  0
 22 23  2  0  0  0  0
 22 24  2  0  0  0  0
 22 25  1  0  0  0  0
 25 30  2  0  0  0  0
 25 26  1  0  0  0  0
 26 27  2  0  0  0  0
 26 55  1  0  0  0  0
 27 28  1  0  0  0  0
 27 56  1  0  0  0  0
 28 29  2  0  0  0  0
 28 31  1  0  0  0  0
 29 30  1  0  0  0  0
 29 57  1  0  0  0  0
 30 58  1  0  0  0  0
 31 32  1  0  0  0  0
 31 33  1  0  0  0  0
 31 34  1  0  0  0  0
 32 59  1  0  0  0  0
 32 60  1  0  0  0  0
 32 61  1  0  0  0  0
 33 62  1  0  0  0  0
 33 63  1  0  0  0  0
 33 64  1  0  0  0  0
 34 65  1  0  0  0  0
 34 66  1  0  0  0  0
 34 67  1  0  0  0  0
 35 68  1  0  0  0  0
 35 69  1  0  0  0  0
 70 71  1  0  0  0  0
M  CHG  1  70   1
M  END
$$$$
ZINC03834119
  -OEChem-08230709403D

 65 68  0     1  0  0  0  0  0999 V2000
    2.6084   -1.7259   -0.0275 H   0  0  0  0  0  0  0  0  0  0  0  0
    0.8445   -0.7092   -0.0205 C   0  0  0  0  0  0  0  0  0  0  0  0
    0.2701    0.6556   -0.0157 C   0  0  0  0  0  0  0  0  0  0  0  0
   -1.1134    0.8330   -0.0175 C   0  0  0  0  0  0  0  0  0  0  0  0
   -1.6426    2.1071   -0.0072 C   0  0  0  0  0  0  0  0  0  0  0  0
   -0.8040    3.2076   -0.0072 C   0  0  0  0  0  0  0  0  0  0  0  0
    0.5688    3.0381   -0.0111 C   0  0  0  0  0  0  0  0  0  0  0  0
    1.1101    1.7686   -0.0152 C   0  0  0  0  0  0  0  0  0  0  0  0
    1.4752    4.2420   -0.0107 C   0  0  0  0  0  0  0  0  0  0  0  0
    1.7786    4.6526   -1.4529 C   0  0  1  0  0  0  0  0  0  0  0  0
    0.8505    4.9221   -1.9570 H   0  0  0  0  0  0  0  0  0  0  0  0
    2.7119    5.8358   -1.4526 C   0  0  0  0  0  0  0  0  0  0  0  0
    3.8942    5.6756   -1.6704 O   0  0  0  0  0  0  0  0  0  0  0  0
    2.2328    7.0720   -1.2104 N   0  0  0  0  0  0  0  0  0  0  0  0
    0.8269    7.2691   -0.8318 C   0  0  0  0  0  0  0  0  0  0  0  0
    0.1957    8.2903   -1.7764 C   0  0  0  0  0  0  0  0  0  0  0  0
    1.0333    9.5710   -1.7730 C   0  0  0  0  0  0  0  0  0  0  0  0
    2.4468    9.2596   -2.2702 C   0  0  0  0  0  0  0  0  0  0  0  0
    3.1049    8.2488   -1.3257 C   0  0  0  0  0  0  0  0  0  0  0  0
    0.3855   10.6064   -2.6944 C   0  0  0  0  0  0  0  0  0  0  0  0
    2.4093    3.5333   -2.1570 N   0  0  0  0  0  0  0  0  0  0  0  0
    1.4862    2.4995   -3.0632 S   0  0  0  0  0  0  0  0  0  0  0  0
    2.3786    1.5512   -3.6325 O   0  0  0  0  0  0  0  0  0  0  0  0
    0.3863    2.1171   -2.2488 O   0  0  0  0  0  0  0  0  0  0  0  0
    0.8214    3.4323   -4.4021 C   0  0  0  0  0  0  0  0  0  0  0  0
   -0.4106    4.0665   -4.2518 C   0  0  0  0  0  0  0  0  0  0  0  0
   -0.9496    4.7991   -5.2641 C   0  0  0  0  0  0  0  0  0  0  0  0
   -0.2619    4.9101   -6.4846 C   0  0  0  0  0  0  0  0  0  0  0  0
   -0.7899    5.6523   -7.5549 C   0  0  0  0  0  0  0  0  0  0  0  0
   -0.0955    5.7380   -8.7223 C   0  0  0  0  0  0  0  0  0  0  0  0
    1.1339    5.0993   -8.8744 C   0  0  0  0  0  0  0  0  0  0  0  0
    1.6759    4.3718   -7.8600 C   0  0  0  0  0  0  0  0  0  0  0  0
    0.9882    4.2608   -6.6394 C   0  0  0  0  0  0  0  0  0  0  0  0
    1.5159    3.5180   -5.5693 C   0  0  0  0  0  0  0  0  0  0  0  0
    0.0119   -1.8072   -0.0210 N   0  0  0  0  0  0  0  0  0  0  0  0
   -1.7690   -0.0252   -0.0223 H   0  0  0  0  0  0  0  0  0  0  0  0
   -2.7136    2.2458   -0.0038 H   0  0  0  0  0  0  0  0  0  0  0  0
   -1.2229    4.2030   -0.0037 H   0  0  0  0  0  0  0  0  0  0  0  0
    2.1821    1.6374   -0.0176 H   0  0  0  0  0  0  0  0  0  0  0  0
    0.9838    5.0665    0.5061 H   0  0  0  0  0  0  0  0  0  0  0  0
    2.4059    3.9959    0.5005 H   0  0  0  0  0  0  0  0  0  0  0  0
    0.2916    6.3226   -0.9087 H   0  0  0  0  0  0  0  0  0  0  0  0
    0.7725    7.6398    0.1917 H   0  0  0  0  0  0  0  0  0  0  0  0
   -0.8175    8.5172   -1.4445 H   0  0  0  0  0  0  0  0  0  0  0  0
    0.1647    7.8786   -2.7853 H   0  0  0  0  0  0  0  0  0  0  0  0
    1.0844    9.9685   -0.7592 H   0  0  0  0  0  0  0  0  0  0  0  0
    3.0360   10.1764   -2.2896 H   0  0  0  0  0  0  0  0  0  0  0  0
    2.3947    8.8387   -3.2743 H   0  0  0  0  0  0  0  0  0  0  0  0
    3.2402    8.7011   -0.3432 H   0  0  0  0  0  0  0  0  0  0  0  0
    4.0723    7.9486   -1.7284 H   0  0  0  0  0  0  0  0  0  0  0  0
    0.3348   10.2093   -3.7082 H   0  0  0  0  0  0  0  0  0  0  0  0
   -0.6213   10.8284   -2.3404 H   0  0  0  0  0  0  0  0  0  0  0  0
    0.9813   11.5191   -2.6911 H   0  0  0  0  0  0  0  0  0  0  0  0
    3.3676    3.3977   -2.0921 H   0  0  0  0  0  0  0  0  0  0  0  0
   -0.9434    3.9788   -3.3165 H   0  0  0  0  0  0  0  0  0  0  0  0
   -1.9034    5.2882   -5.1320 H   0  0  0  0  0  0  0  0  0  0  0  0
   -1.7414    6.1525   -7.4514 H   0  0  0  0  0  0  0  0  0  0  0  0
   -0.5034    6.3092   -9.5431 H   0  0  0  0  0  0  0  0  0  0  0  0
    1.6642    5.1827   -9.8116 H   0  0  0  0  0  0  0  0  0  0  0  0
    2.6292    3.8820   -7.9925 H   0  0  0  0  0  0  0  0  0  0  0  0
    2.4673    3.0175   -5.6728 H   0  0  0  0  0  0  0  0  0  0  0  0
   -0.9504   -1.6860   -0.0181 H   0  0  0  0  0  0  0  0  0  0  0  0
    0.3882   -2.7011   -0.0241 H   0  0  0  0  0  0  0  0  0  0  0  0
    2.1650   -0.8071   -0.0242 N   0  3  0  0  0  0  0  0  0  0  0  0
    2.7427    0.0417   -0.0236 H   0  0  0  0  0  0  0  0  0  0  0  0
  1 64  1  0  0  0  0
  2  3  1  0  0  0  0
  2 35  1  0  0  0  0
  2 64  2  0  0  0  0
  3  8  2  0  0  0  0
  3  4  1  0  0  0  0
  4  5  2  0  0  0  0
  4 36  1  0  0  0  0
  5  6  1  0  0  0  0
  5 37  1  0  0  0  0
  6  7  2  0  0  0  0
  6 38  1  0  0  0  0
  7  8  1  0  0  0  0
  7  9  1  0  0  0  0
  8 39  1  0  0  0  0
  9 10  1  0  0  0  0
  9 40  1  0  0  0  0
  9 41  1  0  0  0  0
 10 11  1  0  0  0  0
 10 12  1  0  0  0  0
 10 21  1  0  0  0  0
 12 13  2  0  0  0  0
 12 14  1  0  0  0  0
 14 19  1  0  0  0  0
 14 15  1  0  0  0  0
 15 16  1  0  0  0  0
 15 42  1  0  0  0  0
 15 43  1  0  0  0  0
 16 17  1  0  0  0  0
 16 44  1  0  0  0  0
 16 45  1  0  0  0  0
 17 18  1  0  0  0  0
 17 20  1  0  0  0  0
 17 46  1  0  0  0  0
 18 19  1  0  0  0  0
 18 47  1  0  0  0  0
 18 48  1  0  0  0  0
 19 49  1  0  0  0  0
 19 50  1  0  0  0  0
 20 51  1  0  0  0  0
 20 52  1  0  0  0  0
 20 53  1  0  0  0  0
 21 22  1  0  0  0  0
 21 54  1  0  0  0  0
 22 23  2  0  0  0  0
 22 24  2  0  0  0  0
 22 25  1  0  0  0  0
 25 34  2  0  0  0  0
 25 26  1  0  0  0  0
 26 27  2  0  0  0  0
 26 55  1  0  0  0  0
 27 28  1  0  0  0  0
 27 56  1  0  0  0  0
 28 33  2  0  0  0  0
 28 29  1  0  0  0  0
 29 30  2  0  0  0  0
 29 57  1  0  0  0  0
 30 31  1  0  0  0  0
 30 58  1  0  0  0  0
 31 32  2  0  0  0  0
 31 59  1  0  0  0  0
 32 33  1  0  0  0  0
 32 60  1  0  0  0  0
 33 34  1  0  0  0  0
 34 61  1  0  0  0  0
 35 62  1  0  0  0  0
 35 63  1  0  0  0  0
 64 65  1  0  0  0  0
M  CHG  1  64   1
M  END
$$$$
ZINC03834120
  -OEChem-08230709403D

 75 78  0     1  0  0  0  0  0999 V2000
   -3.7799    9.6518   -5.8517 H   0  0  0  0  0  0  0  0  0  0  0  0
   -3.7661   10.1112   -3.8684 C   0  0  0  0  0  0  0  0  0  0  0  0
   -3.5312    9.5327   -2.5256 C   0  0  0  0  0  0  0  0  0  0  0  0
   -3.6590   10.3294   -1.3879 C   0  0  0  0  0  0  0  0  0  0  0  0
   -3.4393    9.7848   -0.1395 C   0  0  0  0  0  0  0  0  0  0  0  0
   -3.0983    8.4496   -0.0144 C   0  0  0  0  0  0  0  0  0  0  0  0
   -2.9646    7.6559   -1.1392 C   0  0  0  0  0  0  0  0  0  0  0  0
   -3.1818    8.1893   -2.3935 C   0  0  0  0  0  0  0  0  0  0  0  0
   -2.5869    6.2042   -0.9947 C   0  0  0  0  0  0  0  0  0  0  0  0
   -1.0637    6.0669   -1.0369 C   0  0  1  0  0  0  0  0  0  0  0  0
   -0.6259    6.6192   -0.2053 H   0  0  0  0  0  0  0  0  0  0  0  0
   -0.6872    4.6118   -0.9269 C   0  0  0  0  0  0  0  0  0  0  0  0
   -0.3165    4.0054   -1.9097 O   0  0  0  0  0  0  0  0  0  0  0  0
   -0.7626    3.9843    0.2634 N   0  0  0  0  0  0  0  0  0  0  0  0
   -0.5080    2.5404    0.3652 C   0  0  0  0  0  0  0  0  0  0  0  0
    0.5964    2.3095    1.4041 C   0  0  0  0  0  0  0  0  0  0  0  0
    0.2618    3.0572    2.6243 N   0  0  0  0  0  0  0  0  0  0  0  0
    0.0030    4.5006    2.5216 C   0  0  0  0  0  0  0  0  0  0  0  0
   -1.1013    4.7315    1.4828 C   0  0  0  0  0  0  0  0  0  0  0  0
    0.1719    2.2863    4.0872 S   0  0  0  0  0  0  0  0  0  0  0  0
   -0.7202    3.0777    4.8600 O   0  0  0  0  0  0  0  0  0  0  0  0
   -0.1463    0.9387    3.7679 O   0  0  0  0  0  0  0  0  0  0  0  0
    1.8491    2.3872    4.7711 C   0  0  0  0  0  0  0  0  0  0  0  0
   -0.5594    6.6076   -2.3016 N   0  0  0  0  0  0  0  0  0  0  0  0
   -0.0248    8.1730   -2.3783 S   0  0  0  0  0  0  0  0  0  0  0  0
    0.4187    8.3859   -3.7114 O   0  0  0  0  0  0  0  0  0  0  0  0
   -1.0290    8.9752   -1.7722 O   0  0  0  0  0  0  0  0  0  0  0  0
    1.4008    8.2877   -1.3490 C   0  0  0  0  0  0  0  0  0  0  0  0
    2.6562    8.0493   -1.8774 C   0  0  0  0  0  0  0  0  0  0  0  0
    3.7717    8.1380   -1.0703 C   0  0  0  0  0  0  0  0  0  0  0  0
    3.6381    8.4684    0.2748 C   0  0  0  0  0  0  0  0  0  0  0  0
    2.3808    8.7086    0.8002 C   0  0  0  0  0  0  0  0  0  0  0  0
    1.2649    8.6211   -0.0158 C   0  0  0  0  0  0  0  0  0  0  0  0
    2.1922    9.0751    2.2504 C   0  0  0  0  0  0  0  0  0  0  0  0
    3.4452    8.6979    3.0446 C   0  0  0  0  0  0  0  0  0  0  0  0
    4.6714    9.2261    2.2890 C   0  0  0  0  0  0  0  0  0  0  0  0
    4.7592    8.5415    1.0386 O   0  0  0  0  0  0  0  0  0  0  0  0
    5.9353    8.9633    3.1102 C   0  0  0  0  0  0  0  0  0  0  0  0
    4.5191   10.7287    2.0444 C   0  0  0  0  0  0  0  0  0  0  0  0
   -4.1111   11.4389   -3.9959 N   0  0  0  0  0  0  0  0  0  0  0  0
   -3.9297   11.3706   -1.4840 H   0  0  0  0  0  0  0  0  0  0  0  0
   -3.5376   10.4007    0.7422 H   0  0  0  0  0  0  0  0  0  0  0  0
   -2.9317    8.0266    0.9652 H   0  0  0  0  0  0  0  0  0  0  0  0
   -3.0810    7.5676   -3.2708 H   0  0  0  0  0  0  0  0  0  0  0  0
   -3.0261    5.6314   -1.8114 H   0  0  0  0  0  0  0  0  0  0  0  0
   -2.9598    5.8249   -0.0432 H   0  0  0  0  0  0  0  0  0  0  0  0
   -0.1858    2.1566   -0.6027 H   0  0  0  0  0  0  0  0  0  0  0  0
   -1.4174    2.0272    0.6779 H   0  0  0  0  0  0  0  0  0  0  0  0
    0.6658    1.2463    1.6341 H   0  0  0  0  0  0  0  0  0  0  0  0
    1.5494    2.6614    1.0092 H   0  0  0  0  0  0  0  0  0  0  0  0
    0.9134    5.0113    2.2075 H   0  0  0  0  0  0  0  0  0  0  0  0
   -0.3180    4.8871    3.4890 H   0  0  0  0  0  0  0  0  0  0  0  0
   -1.1708    5.7947    1.2529 H   0  0  0  0  0  0  0  0  0  0  0  0
   -2.0539    4.3767    1.8765 H   0  0  0  0  0  0  0  0  0  0  0  0
    2.1333    3.4335    4.8834 H   0  0  0  0  0  0  0  0  0  0  0  0
    1.8746    1.8971    5.7443 H   0  0  0  0  0  0  0  0  0  0  0  0
    2.5470    1.8915    4.0963 H   0  0  0  0  0  0  0  0  0  0  0  0
   -0.5387    6.0486   -3.0941 H   0  0  0  0  0  0  0  0  0  0  0  0
    2.7635    7.7936   -2.9213 H   0  0  0  0  0  0  0  0  0  0  0  0
    4.7515    7.9507   -1.4838 H   0  0  0  0  0  0  0  0  0  0  0  0
    0.2837    8.8107    0.3936 H   0  0  0  0  0  0  0  0  0  0  0  0
    1.3330    8.5376    2.6516 H   0  0  0  0  0  0  0  0  0  0  0  0
    2.0196   10.1482    2.3332 H   0  0  0  0  0  0  0  0  0  0  0  0
    3.5092    7.6137    3.1367 H   0  0  0  0  0  0  0  0  0  0  0  0
    3.4021    9.1490    4.0360 H   0  0  0  0  0  0  0  0  0  0  0  0
    6.8061    9.3225    2.5619 H   0  0  0  0  0  0  0  0  0  0  0  0
    5.8647    9.4871    4.0635 H   0  0  0  0  0  0  0  0  0  0  0  0
    6.0355    7.8929    3.2904 H   0  0  0  0  0  0  0  0  0  0  0  0
    3.6130   10.9128    1.4671 H   0  0  0  0  0  0  0  0  0  0  0  0
    4.4524   11.2476    3.0005 H   0  0  0  0  0  0  0  0  0  0  0  0
    5.3834   11.0961    1.4910 H   0  0  0  0  0  0  0  0  0  0  0  0
   -4.2003   11.9949   -3.2060 H   0  0  0  0  0  0  0  0  0  0  0  0
   -4.2650   11.8179   -4.8754 H   0  0  0  0  0  0  0  0  0  0  0  0
   -3.6286    9.3003   -4.9061 N   0  3  0  0  0  0  0  0  0  0  0  0
   -3.3697    8.3177   -4.7589 H   0  0  0  0  0  0  0  0  0  0  0  0
  1 74  1  0  0  0  0
  2  3  1  0  0  0  0
  2 40  1  0  0  0  0
  2 74  2  0  0  0  0
  3  8  2  0  0  0  0
  3  4  1  0  0  0  0
  4  5  2  0  0  0  0
  4 41  1  0  0  0  0
  5  6  1  0  0  0  0
  5 42  1  0  0  0  0
  6  7  2  0  0  0  0
  6 43  1  0  0  0  0
  7  8  1  0  0  0  0
  7  9  1  0  0  0  0
  8 44  1  0  0  0  0
  9 10  1  0  0  0  0
  9 45  1  0  0  0  0
  9 46  1  0  0  0  0
 10 11  1  0  0  0  0
 10 12  1  0  0  0  0
 10 24  1  0  0  0  0
 12 13  2  0  0  0  0
 12 14  1  0  0  0  0
 14 19  1  0  0  0  0
 14 15  1  0  0  0  0
 15 16  1  0  0  0  0
 15 47  1  0  0  0  0
 15 48  1  0  0  0  0
 16 17  1  0  0  0  0
 16 49  1  0  0  0  0
 16 50  1  0  0  0  0
 17 18  1  0  0  0  0
 17 20  1  0  0  0  0
 18 19  1  0  0  0  0
 18 51  1  0  0  0  0
 18 52  1  0  0  0  0
 19 53  1  0  0  0  0
 19 54  1  0  0  0  0
 20 21  2  0  0  0  0
 20 22  2  0  0  0  0
 20 23  1  0  0  0  0
 23 55  1  0  0  0  0
 23 56  1  0  0  0  0
 23 57  1  0  0  0  0
 24 25  1  0  0  0  0
 24 58  1  0  0  0  0
 25 26  2  0  0  0  0
 25 27  2  0  0  0  0
 25 28  1  0  0  0  0
 28 33  2  0  0  0  0
 28 29  1  0  0  0  0
 29 30  2  0  0  0  0
 29 59  1  0  0  0  0
 30 31  1  0  0  0  0
 30 60  1  0  0  0  0
 31 37  1  0  0  0  0
 31 32  2  0  0  0  0
 32 33  1  0  0  0  0
 32 34  1  0  0  0  0
 33 61  1  0  0  0  0
 34 35  1  0  0  0  0
 34 62  1  0  0  0  0
 34 63  1  0  0  0  0
 35 36  1  0  0  0  0
 35 64  1  0  0  0  0
 35 65  1  0  0  0  0
 36 37  1  0  0  0  0
 36 38  1  0  0  0  0
 36 39  1  0  0  0  0
 38 66  1  0  0  0  0
 38 67  1  0  0  0  0
 38 68  1  0  0  0  0
 39 69  1  0  0  0  0
 39 70  1  0  0  0  0
 39 71  1  0  0  0  0
 40 72  1  0  0  0  0
 40 73  1  0  0  0  0
 74 75  1  0  0  0  0
M  CHG  1  74   1
M  END
$$$$
ZINC03834121
  -OEChem-08230709403D

 74 77  0     1  0  0  0  0  0999 V2000
   -3.3995   -3.1735   -3.5584 H   0  0  0  0  0  0  0  0  0  0  0  0
   -4.4514   -2.0326   -2.2408 C   0  0  0  0  0  0  0  0  0  0  0  0
   -4.3551   -0.8277   -1.3852 C   0  0  0  0  0  0  0  0  0  0  0  0
   -5.4434   -0.4324   -0.6074 C   0  0  0  0  0  0  0  0  0  0  0  0
   -5.3474    0.6908    0.1880 C   0  0  0  0  0  0  0  0  0  0  0  0
   -4.1748    1.4246    0.2151 C   0  0  0  0  0  0  0  0  0  0  0  0
   -3.0922    1.0376   -0.5540 C   0  0  0  0  0  0  0  0  0  0  0  0
   -3.1779   -0.0811   -1.3577 C   0  0  0  0  0  0  0  0  0  0  0  0
   -1.8188    1.8428   -0.5190 C   0  0  0  0  0  0  0  0  0  0  0  0
   -0.9041    1.3030    0.5823 C   0  0  1  0  0  0  0  0  0  0  0  0
   -0.7441    0.2354    0.4308 H   0  0  0  0  0  0  0  0  0  0  0  0
    0.4196    2.0214    0.5328 C   0  0  0  0  0  0  0  0  0  0  0  0
    0.6852    2.8613    1.3665 O   0  0  0  0  0  0  0  0  0  0  0  0
    1.3084    1.7306   -0.4377 N   0  0  0  0  0  0  0  0  0  0  0  0
    0.9575    0.8007   -1.5198 C   0  0  0  0  0  0  0  0  0  0  0  0
    2.0180   -0.2961   -1.5966 C   0  0  0  0  0  0  0  0  0  0  0  0
    3.4009    0.3435   -1.7407 C   0  0  0  0  0  0  0  0  0  0  0  0
    3.6920    1.2143   -0.5163 C   0  0  0  0  0  0  0  0  0  0  0  0
    2.6486    2.3326   -0.4303 C   0  0  0  0  0  0  0  0  0  0  0  0
    4.4612   -0.7541   -1.8493 C   0  0  0  0  0  0  0  0  0  0  0  0
   -1.5304    1.5224    1.8884 N   0  0  0  0  0  0  0  0  0  0  0  0
   -1.3304    0.4111    3.0997 S   0  0  0  0  0  0  0  0  0  0  0  0
   -2.0806    0.9257    4.1913 O   0  0  0  0  0  0  0  0  0  0  0  0
   -1.6729   -0.8350    2.5087 O   0  0  0  0  0  0  0  0  0  0  0  0
    0.4418    0.4543    3.4840 C   0  0  0  0  0  0  0  0  0  0  0  0
    0.7457   -0.5444    4.6026 C   0  0  1  0  0  0  0  0  0  0  0  0
    0.4490   -2.0402    4.2777 C   0  0  0  0  0  0  0  0  0  0  0  0
    1.3051   -2.8241    5.3279 C   0  0  0  0  0  0  0  0  0  0  0  0
    2.0022   -1.7151    6.1747 C   0  0  1  0  0  0  0  0  0  0  0  0
    2.8684   -2.0301    6.7567 H   0  0  0  0  0  0  0  0  0  0  0  0
    2.2400   -0.6190    5.0759 C   0  0  0  0  0  0  0  0  0  0  0  0
    3.1739   -1.0920    3.9602 C   0  0  0  0  0  0  0  0  0  0  0  0
    2.7141    0.6979    5.6939 C   0  0  0  0  0  0  0  0  0  0  0  0
    0.8394   -1.0548    6.9773 C   0  0  0  0  0  0  0  0  0  0  0  0
    0.0321   -0.2908    5.9380 C   0  0  0  0  0  0  0  0  0  0  0  0
   -0.9591    0.3736    6.1241 O   0  0  0  0  0  0  0  0  0  0  0  0
   -5.6177   -2.7657   -2.2695 N   0  0  0  0  0  0  0  0  0  0  0  0
   -6.3593   -1.0042   -0.6280 H   0  0  0  0  0  0  0  0  0  0  0  0
   -6.1893    0.9976    0.7911 H   0  0  0  0  0  0  0  0  0  0  0  0
   -4.1043    2.3029    0.8396 H   0  0  0  0  0  0  0  0  0  0  0  0
   -2.3334   -0.3796   -1.9612 H   0  0  0  0  0  0  0  0  0  0  0  0
   -2.0548    2.8873   -0.3158 H   0  0  0  0  0  0  0  0  0  0  0  0
   -1.3134    1.7652   -1.4816 H   0  0  0  0  0  0  0  0  0  0  0  0
   -0.0151    0.3532   -1.3160 H   0  0  0  0  0  0  0  0  0  0  0  0
    0.9232    1.3389   -2.4672 H   0  0  0  0  0  0  0  0  0  0  0  0
    1.8209   -0.9346   -2.4579 H   0  0  0  0  0  0  0  0  0  0  0  0
    1.9868   -0.8940   -0.6858 H   0  0  0  0  0  0  0  0  0  0  0  0
    3.4236    0.9605   -2.6389 H   0  0  0  0  0  0  0  0  0  0  0  0
    4.6865    1.6508   -0.6086 H   0  0  0  0  0  0  0  0  0  0  0  0
    3.6452    0.6030    0.3849 H   0  0  0  0  0  0  0  0  0  0  0  0
    2.7549    2.9982   -1.2870 H   0  0  0  0  0  0  0  0  0  0  0  0
    2.7904    2.8975    0.4910 H   0  0  0  0  0  0  0  0  0  0  0  0
    4.4390   -1.3710   -0.9510 H   0  0  0  0  0  0  0  0  0  0  0  0
    4.2540   -1.3744   -2.7213 H   0  0  0  0  0  0  0  0  0  0  0  0
    5.4461   -0.2988   -1.9532 H   0  0  0  0  0  0  0  0  0  0  0  0
   -2.0622    2.3186    2.0436 H   0  0  0  0  0  0  0  0  0  0  0  0
    1.0131    0.1884    2.5946 H   0  0  0  0  0  0  0  0  0  0  0  0
    0.7192    1.4575    3.8074 H   0  0  0  0  0  0  0  0  0  0  0  0
   -0.6115   -2.2549    4.4096 H   0  0  0  0  0  0  0  0  0  0  0  0
    0.7621   -2.2777    3.2610 H   0  0  0  0  0  0  0  0  0  0  0  0
    2.0484   -3.4457    4.8290 H   0  0  0  0  0  0  0  0  0  0  0  0
    0.6601   -3.4356    5.9588 H   0  0  0  0  0  0  0  0  0  0  0  0
    3.1178   -0.3987    3.1210 H   0  0  0  0  0  0  0  0  0  0  0  0
    4.1973   -1.1281    4.3338 H   0  0  0  0  0  0  0  0  0  0  0  0
    2.8721   -2.0863    3.6309 H   0  0  0  0  0  0  0  0  0  0  0  0
    2.0955    0.9368    6.5590 H   0  0  0  0  0  0  0  0  0  0  0  0
    3.7536    0.5990    6.0068 H   0  0  0  0  0  0  0  0  0  0  0  0
    2.6310    1.4961    4.9563 H   0  0  0  0  0  0  0  0  0  0  0  0
    1.2190   -0.4516    7.6787 H   0  0  0  0  0  0  0  0  0  0  0  0
    0.2221   -1.8181    7.4510 H   0  0  0  0  0  0  0  0  0  0  0  0
   -6.3757   -2.4926   -1.7293 H   0  0  0  0  0  0  0  0  0  0  0  0
   -5.6808   -3.5550   -2.8299 H   0  0  0  0  0  0  0  0  0  0  0  0
   -3.3825   -2.3521   -2.9536 N   0  3  0  0  0  0  0  0  0  0  0  0
   -2.5363   -1.7733   -2.8978 H   0  0  0  0  0  0  0  0  0  0  0  0
  1 73  1  0  0  0  0
  2  3  1  0  0  0  0
  2 37  1  0  0  0  0
  2 73  2  0  0  0  0
  3  8  2  0  0  0  0
  3  4  1  0  0  0  0
  4  5  2  0  0  0  0
  4 38  1  0  0  0  0
  5  6  1  0  0  0  0
  5 39  1  0  0  0  0
  6  7  2  0  0  0  0
  6 40  1  0  0  0  0
  7  8  1  0  0  0  0
  7  9  1  0  0  0  0
  8 41  1  0  0  0  0
  9 10  1  0  0  0  0
  9 42  1  0  0  0  0
  9 43  1  0  0  0  0
 10 11  1  0  0  0  0
 10 12  1  0  0  0  0
 10 21  1  0  0  0  0
 12 13  2  0  0  0  0
 12 14  1  0  0  0  0
 14 19  1  0  0  0  0
 14 15  1  0  0  0  0
 15 16  1  0  0  0  0
 15 44  1  0  0  0  0
 15 45  1  0  0  0  0
 16 17  1  0  0  0  0
 16 46  1  0  0  0  0
 16 47  1  0  0  0  0
 17 18  1  0  0  0  0
 17 20  1  0  0  0  0
 17 48  1  0  0  0  0
 18 19  1  0  0  0  0
 18 49  1  0  0  0  0
 18 50  1  0  0  0  0
 19 51  1  0  0  0  0
 19 52  1  0  0  0  0
 20 53  1  0  0  0  0
 20 54  1  0  0  0  0
 20 55  1  0  0  0  0
 21 22  1  0  0  0  0
 21 56  1  0  0  0  0
 22 23  2  0  0  0  0
 22 24  2  0  0  0  0
 22 25  1  0  0  0  0
 25 26  1  0  0  0  0
 25 57  1  0  0  0  0
 25 58  1  0  0  0  0
 26 31  1  0  0  0  0
 26 35  1  0  0  0  0
 26 27  1  0  0  0  0
 27 28  1  0  0  0  0
 27 59  1  0  0  0  0
 27 60  1  0  0  0  0
 28 29  1  0  0  0  0
 28 61  1  0  0  0  0
 28 62  1  0  0  0  0
 29 30  1  0  0  0  0
 29 31  1  0  0  0  0
 29 34  1  0  0  0  0
 31 32  1  0  0  0  0
 31 33  1  0  0  0  0
 32 63  1  0  0  0  0
 32 64  1  0  0  0  0
 32 65  1  0  0  0  0
 33 66  1  0  0  0  0
 33 67  1  0  0  0  0
 33 68  1  0  0  0  0
 34 35  1  0  0  0  0
 34 69  1  0  0  0  0
 34 70  1  0  0  0  0
 35 36  2  0  0  0  0
 37 71  1  0  0  0  0
 37 72  1  0  0  0  0
 73 74  1  0  0  0  0
M  CHG  1  73   1
M  END
$$$$
ZINC03834122
  -OEChem-08230709403D

 65 68  0     1  0  0  0  0  0999 V2000
   -8.4192    5.1630    3.4106 H   0  0  0  0  0  0  0  0  0  0  0  0
   -7.8985    6.8194    2.3479 C   0  0  0  0  0  0  0  0  0  0  0  0
   -6.7347    7.6322    1.9261 C   0  0  0  0  0  0  0  0  0  0  0  0
   -6.9222    8.7679    1.1384 C   0  0  0  0  0  0  0  0  0  0  0  0
   -5.8341    9.5212    0.7490 C   0  0  0  0  0  0  0  0  0  0  0  0
   -4.5592    9.1556    1.1431 C   0  0  0  0  0  0  0  0  0  0  0  0
   -4.3662    8.0273    1.9196 C   0  0  0  0  0  0  0  0  0  0  0  0
   -5.4468    7.2656    2.3154 C   0  0  0  0  0  0  0  0  0  0  0  0
   -2.9738    7.6325    2.3394 C   0  0  0  0  0  0  0  0  0  0  0  0
   -2.3716    6.6948    1.2912 C   0  0  1  0  0  0  0  0  0  0  0  0
   -2.3751    7.1870    0.3186 H   0  0  0  0  0  0  0  0  0  0  0  0
   -0.9552    6.3540    1.6765 C   0  0  0  0  0  0  0  0  0  0  0  0
   -0.7236    5.3390    2.2988 O   0  0  0  0  0  0  0  0  0  0  0  0
    0.0542    7.1769    1.3296 N   0  0  0  0  0  0  0  0  0  0  0  0
   -0.2191    8.4557    0.6599 C   0  0  0  0  0  0  0  0  0  0  0  0
    0.6023    8.5297   -0.6259 C   0  0  0  0  0  0  0  0  0  0  0  0
    2.0788    8.2935   -0.2997 C   0  0  0  0  0  0  0  0  0  0  0  0
    2.2523    6.8992    0.3069 C   0  0  0  0  0  0  0  0  0  0  0  0
    1.4492    6.8094    1.6083 C   0  0  0  0  0  0  0  0  0  0  0  0
    2.9071    8.3983   -1.5818 C   0  0  0  0  0  0  0  0  0  0  0  0
   -3.1674    5.4668    1.2199 N   0  0  0  0  0  0  0  0  0  0  0  0
   -3.3824    4.7026   -0.2334 S   0  0  0  0  0  0  0  0  0  0  0  0
   -3.7687    5.7035   -1.1653 O   0  0  0  0  0  0  0  0  0  0  0  0
   -4.1788    3.5546    0.0253 O   0  0  0  0  0  0  0  0  0  0  0  0
   -1.8044    4.1145   -0.7514 C   0  0  0  0  0  0  0  0  0  0  0  0
   -1.2163    4.6256   -1.8677 C   0  0  0  0  0  0  0  0  0  0  0  0
    0.0287    4.1692   -2.2956 C   0  0  0  0  0  0  0  0  0  0  0  0
    0.6985    3.2074   -1.6032 C   0  0  0  0  0  0  0  0  0  0  0  0
    0.1262    2.6606   -0.4424 C   0  0  0  0  0  0  0  0  0  0  0  0
   -1.1429    3.1208   -0.0103 C   0  0  0  0  0  0  0  0  0  0  0  0
   -1.7151    2.5743    1.1513 C   0  0  0  0  0  0  0  0  0  0  0  0
   -1.0455    1.6129    1.8436 C   0  0  0  0  0  0  0  0  0  0  0  0
    0.2026    1.1605    1.4188 C   0  0  0  0  0  0  0  0  0  0  0  0
    0.7877    1.6666    0.2991 C   0  0  0  0  0  0  0  0  0  0  0  0
   -9.1698    7.1842    1.9617 N   0  0  0  0  0  0  0  0  0  0  0  0
   -7.9174    9.0569    0.8340 H   0  0  0  0  0  0  0  0  0  0  0  0
   -5.9780   10.4006    0.1386 H   0  0  0  0  0  0  0  0  0  0  0  0
   -3.7109    9.7510    0.8395 H   0  0  0  0  0  0  0  0  0  0  0  0
   -5.2953    6.3871    2.9251 H   0  0  0  0  0  0  0  0  0  0  0  0
   -3.0153    7.1227    3.3020 H   0  0  0  0  0  0  0  0  0  0  0  0
   -2.3540    8.5250    2.4273 H   0  0  0  0  0  0  0  0  0  0  0  0
   -1.2800    8.5225    0.4185 H   0  0  0  0  0  0  0  0  0  0  0  0
    0.0607    9.2794    1.3168 H   0  0  0  0  0  0  0  0  0  0  0  0
    0.4829    9.5136   -1.0794 H   0  0  0  0  0  0  0  0  0  0  0  0
    0.2562    7.7641   -1.3203 H   0  0  0  0  0  0  0  0  0  0  0  0
    2.4175    9.0447    0.4138 H   0  0  0  0  0  0  0  0  0  0  0  0
    3.3070    6.7227    0.5174 H   0  0  0  0  0  0  0  0  0  0  0  0
    1.8906    6.1489   -0.3962 H   0  0  0  0  0  0  0  0  0  0  0  0
    1.8678    7.4960    2.3442 H   0  0  0  0  0  0  0  0  0  0  0  0
    1.4887    5.7901    1.9925 H   0  0  0  0  0  0  0  0  0  0  0  0
    2.5689    7.6468   -2.2953 H   0  0  0  0  0  0  0  0  0  0  0  0
    2.7838    9.3912   -2.0140 H   0  0  0  0  0  0  0  0  0  0  0  0
    3.9589    8.2313   -1.3495 H   0  0  0  0  0  0  0  0  0  0  0  0
   -3.5682    5.1013    2.0241 H   0  0  0  0  0  0  0  0  0  0  0  0
   -1.7244    5.3930   -2.4326 H   0  0  0  0  0  0  0  0  0  0  0  0
    0.4709    4.5879   -3.1876 H   0  0  0  0  0  0  0  0  0  0  0  0
    1.6651    2.8668   -1.9441 H   0  0  0  0  0  0  0  0  0  0  0  0
   -2.6812    2.9156    1.4928 H   0  0  0  0  0  0  0  0  0  0  0  0
   -1.4875    1.1944    2.7357 H   0  0  0  0  0  0  0  0  0  0  0  0
    0.7131    0.3970    1.9869 H   0  0  0  0  0  0  0  0  0  0  0  0
    1.7553    1.3066   -0.0177 H   0  0  0  0  0  0  0  0  0  0  0  0
   -9.3024    7.9733    1.4135 H   0  0  0  0  0  0  0  0  0  0  0  0
   -9.9320    6.6517    2.2379 H   0  0  0  0  0  0  0  0  0  0  0  0
   -7.6506    5.7547    3.0949 N   0  3  0  0  0  0  0  0  0  0  0  0
   -6.6847    5.5247    3.3564 H   0  0  0  0  0  0  0  0  0  0  0  0
  1 64  1  0  0  0  0
  2  3  1  0  0  0  0
  2 35  1  0  0  0  0
  2 64  2  0  0  0  0
  3  8  2  0  0  0  0
  3  4  1  0  0  0  0
  4  5  2  0  0  0  0
  4 36  1  0  0  0  0
  5  6  1  0  0  0  0
  5 37  1  0  0  0  0
  6  7  2  0  0  0  0
  6 38  1  0  0  0  0
  7  8  1  0  0  0  0
  7  9  1  0  0  0  0
  8 39  1  0  0  0  0
  9 10  1  0  0  0  0
  9 40  1  0  0  0  0
  9 41  1  0  0  0  0
 10 11  1  0  0  0  0
 10 12  1  0  0  0  0
 10 21  1  0  0  0  0
 12 13  2  0  0  0  0
 12 14  1  0  0  0  0
 14 19  1  0  0  0  0
 14 15  1  0  0  0  0
 15 16  1  0  0  0  0
 15 42  1  0  0  0  0
 15 43  1  0  0  0  0
 16 17  1  0  0  0  0
 16 44  1  0  0  0  0
 16 45  1  0  0  0  0
 17 18  1  0  0  0  0
 17 20  1  0  0  0  0
 17 46  1  0  0  0  0
 18 19  1  0  0  0  0
 18 47  1  0  0  0  0
 18 48  1  0  0  0  0
 19 49  1  0  0  0  0
 19 50  1  0  0  0  0
 20 51  1  0  0  0  0
 20 52  1  0  0  0  0
 20 53  1  0  0  0  0
 21 22  1  0  0  0  0
 21 54  1  0  0  0  0
 22 23  2  0  0  0  0
 22 24  2  0  0  0  0
 22 25  1  0  0  0  0
 25 30  2  0  0  0  0
 25 26  1  0  0  0  0
 26 27  2  0  0  0  0
 26 55  1  0  0  0  0
 27 28  1  0  0  0  0
 27 56  1  0  0  0  0
 28 29  2  0  0  0  0
 28 57  1  0  0  0  0
 29 34  1  0  0  0  0
 29 30  1  0  0  0  0
 30 31  1  0  0  0  0
 31 32  2  0  0  0  0
 31 58  1  0  0  0  0
 32 33  1  0  0  0  0
 32 59  1  0  0  0  0
 33 34  2  0  0  0  0
 33 60  1  0  0  0  0
 34 61  1  0  0  0  0
 35 62  1  0  0  0  0
 35 63  1  0  0  0  0
 64 65  1  0  0  0  0
M  CHG  1  64   1
M  END
$$$$
ZINC03834123
  -OEChem-08230709403D

 68 72  0     1  0  0  0  0  0999 V2000
   -3.1383   11.0618    1.0043 H   0  0  0  0  0  0  0  0  0  0  0  0
   -3.3478   10.3329   -0.8850 C   0  0  0  0  0  0  0  0  0  0  0  0
   -3.2523    9.0920   -1.6875 C   0  0  0  0  0  0  0  0  0  0  0  0
   -3.5143    9.1221   -3.0571 C   0  0  0  0  0  0  0  0  0  0  0  0
   -3.4231    7.9627   -3.7996 C   0  0  0  0  0  0  0  0  0  0  0  0
   -3.0675    6.7731   -3.1892 C   0  0  0  0  0  0  0  0  0  0  0  0
   -2.8116    6.7360   -1.8304 C   0  0  0  0  0  0  0  0  0  0  0  0
   -2.8994    7.8890   -1.0771 C   0  0  0  0  0  0  0  0  0  0  0  0
   -2.4299    5.4351   -1.1723 C   0  0  0  0  0  0  0  0  0  0  0  0
   -3.6924    4.7184   -0.6890 C   0  0  1  0  0  0  0  0  0  0  0  0
   -4.3834    4.5973   -1.5232 H   0  0  0  0  0  0  0  0  0  0  0  0
   -3.3228    3.3637   -0.1419 C   0  0  0  0  0  0  0  0  0  0  0  0
   -3.5692    3.0884    1.0132 O   0  0  0  0  0  0  0  0  0  0  0  0
   -2.7183    2.4583   -0.9365 N   0  0  0  0  0  0  0  0  0  0  0  0
   -2.3245    2.7904   -2.3098 C   0  0  0  0  0  0  0  0  0  0  0  0
   -2.7059    1.6613   -3.2338 C   0  0  0  0  0  0  0  0  0  0  0  0
   -2.6259    1.8882   -4.6012 C   0  0  0  0  0  0  0  0  0  0  0  0
   -2.9538    0.8915   -5.4970 C   0  0  0  0  0  0  0  0  0  0  0  0
   -3.3642   -0.3430   -5.0288 C   0  0  0  0  0  0  0  0  0  0  0  0
   -3.4470   -0.5687   -3.6708 C   0  0  0  0  0  0  0  0  0  0  0  0
   -3.1215    0.4350   -2.7661 C   0  0  0  0  0  0  0  0  0  0  0  0
   -3.2495    0.1203   -1.2990 C   0  0  0  0  0  0  0  0  0  0  0  0
   -2.4271    1.0969   -0.4597 C   0  0  2  0  0  0  0  0  0  0  0  0
   -1.3650    0.8832   -0.5802 H   0  0  0  0  0  0  0  0  0  0  0  0
   -2.8109    0.9703    0.9921 C   0  0  0  0  0  0  0  0  0  0  0  0
   -1.9531    0.9169    1.8414 O   0  0  0  0  0  0  0  0  0  0  0  0
   -4.3319    5.5121    0.3634 N   0  0  0  0  0  0  0  0  0  0  0  0
   -5.5525    6.5639   -0.0189 S   0  0  0  0  0  0  0  0  0  0  0  0
   -5.9768    7.1545    1.2018 O   0  0  0  0  0  0  0  0  0  0  0  0
   -5.0933    7.3362   -1.1198 O   0  0  0  0  0  0  0  0  0  0  0  0
   -6.9047    5.6003   -0.6089 C   0  0  0  0  0  0  0  0  0  0  0  0
   -7.0042    5.3183   -1.9701 C   0  0  0  0  0  0  0  0  0  0  0  0
   -8.0329    4.5724   -2.4578 C   0  0  0  0  0  0  0  0  0  0  0  0
   -9.0175    4.0877   -1.5799 C   0  0  0  0  0  0  0  0  0  0  0  0
  -10.0979    3.3200   -2.0473 C   0  0  0  0  0  0  0  0  0  0  0  0
  -11.0325    2.8672   -1.1678 C   0  0  0  0  0  0  0  0  0  0  0  0
  -10.9359    3.1538    0.1927 C   0  0  0  0  0  0  0  0  0  0  0  0
   -9.9040    3.8944    0.6813 C   0  0  0  0  0  0  0  0  0  0  0  0
   -8.9192    4.3791   -0.1964 C   0  0  0  0  0  0  0  0  0  0  0  0
   -7.8391    5.1474    0.2707 C   0  0  0  0  0  0  0  0  0  0  0  0
   -3.6966   11.5201   -1.4910 N   0  0  0  0  0  0  0  0  0  0  0  0
   -3.7876   10.0509   -3.5356 H   0  0  0  0  0  0  0  0  0  0  0  0
   -3.6255    7.9848   -4.8603 H   0  0  0  0  0  0  0  0  0  0  0  0
   -2.9931    5.8691   -3.7753 H   0  0  0  0  0  0  0  0  0  0  0  0
   -2.6958    7.8595   -0.0169 H   0  0  0  0  0  0  0  0  0  0  0  0
   -1.7779    5.6355   -0.3223 H   0  0  0  0  0  0  0  0  0  0  0  0
   -1.9066    4.8042   -1.8909 H   0  0  0  0  0  0  0  0  0  0  0  0
   -1.2461    2.9442   -2.3508 H   0  0  0  0  0  0  0  0  0  0  0  0
   -2.8329    3.7024   -2.6225 H   0  0  0  0  0  0  0  0  0  0  0  0
   -2.3046    2.8524   -4.9665 H   0  0  0  0  0  0  0  0  0  0  0  0
   -2.8907    1.0750   -6.5595 H   0  0  0  0  0  0  0  0  0  0  0  0
   -3.6190   -1.1286   -5.7247 H   0  0  0  0  0  0  0  0  0  0  0  0
   -3.7671   -1.5339   -3.3071 H   0  0  0  0  0  0  0  0  0  0  0  0
   -4.2973    0.1911   -1.0071 H   0  0  0  0  0  0  0  0  0  0  0  0
   -2.8946   -0.8942   -1.1176 H   0  0  0  0  0  0  0  0  0  0  0  0
   -4.0402    5.4216    1.2840 H   0  0  0  0  0  0  0  0  0  0  0  0
   -6.2515    5.6936   -2.6476 H   0  0  0  0  0  0  0  0  0  0  0  0
   -8.0951    4.3586   -3.5146 H   0  0  0  0  0  0  0  0  0  0  0  0
  -10.1857    3.0901   -3.0989 H   0  0  0  0  0  0  0  0  0  0  0  0
  -11.8616    2.2771   -1.5296 H   0  0  0  0  0  0  0  0  0  0  0  0
  -11.6915    2.7828    0.8695 H   0  0  0  0  0  0  0  0  0  0  0  0
   -9.8423    4.1089    1.7380 H   0  0  0  0  0  0  0  0  0  0  0  0
   -7.7511    5.3771    1.3224 H   0  0  0  0  0  0  0  0  0  0  0  0
   -3.8796   11.5431   -2.4433 H   0  0  0  0  0  0  0  0  0  0  0  0
   -3.7592   12.3329   -0.9653 H   0  0  0  0  0  0  0  0  0  0  0  0
   -3.0859   10.2349    0.4092 N   0  3  0  0  0  0  0  0  0  0  0  0
   -2.8300    9.3266    0.8139 H   0  0  0  0  0  0  0  0  0  0  0  0
   -4.1058    0.9168    1.3417 O   0  5  0  0  0  0  0  0  0  0  0  0
  1 66  1  0  0  0  0
  2  3  1  0  0  0  0
  2 41  1  0  0  0  0
  2 66  2  0  0  0  0
  3  8  2  0  0  0  0
  3  4  1  0  0  0  0
  4  5  2  0  0  0  0
  4 42  1  0  0  0  0
  5  6  1  0  0  0  0
  5 43  1  0  0  0  0
  6  7  2  0  0  0  0
  6 44  1  0  0  0  0
  7  8  1  0  0  0  0
  7  9  1  0  0  0  0
  8 45  1  0  0  0  0
  9 10  1  0  0  0  0
  9 46  1  0  0  0  0
  9 47  1  0  0  0  0
 10 11  1  0  0  0  0
 10 12  1  0  0  0  0
 10 27  1  0  0  0  0
 12 13  2  0  0  0  0
 12 14  1  0  0  0  0
 14 23  1  0  0  0  0
 14 15  1  0  0  0  0
 15 16  1  0  0  0  0
 15 48  1  0  0  0  0
 15 49  1  0  0  0  0
 16 21  2  0  0  0  0
 16 17  1  0  0  0  0
 17 18  2  0  0  0  0
 17 50  1  0  0  0  0
 18 19  1  0  0  0  0
 18 51  1  0  0  0  0
 19 20  2  0  0  0  0
 19 52  1  0  0  0  0
 20 21  1  0  0  0  0
 20 53  1  0  0  0  0
 21 22  1  0  0  0  0
 22 23  1  0  0  0  0
 22 54  1  0  0  0  0
 22 55  1  0  0  0  0
 23 24  1  0  0  0  0
 23 25  1  0  0  0  0
 25 26  2  0  0  0  0
 25 68  1  0  0  0  0
 27 28  1  0  0  0  0
 27 56  1  0  0  0  0
 28 29  2  0  0  0  0
 28 30  2  0  0  0  0
 28 31  1  0  0  0  0
 31 40  2  0  0  0  0
 31 32  1  0  0  0  0
 32 33  2  0  0  0  0
 32 57  1  0  0  0  0
 33 34  1  0  0  0  0
 33 58  1  0  0  0  0
 34 39  2  0  0  0  0
 34 35  1  0  0  0  0
 35 36  2  0  0  0  0
 35 59  1  0  0  0  0
 36 37  1  0  0  0  0
 36 60  1  0  0  0  0
 37 38  2  0  0  0  0
 37 61  1  0  0  0  0
 38 39  1  0  0  0  0
 38 62  1  0  0  0  0
 39 40  1  0  0  0  0
 40 63  1  0  0  0  0
 41 64  1  0  0  0  0
 41 65  1  0  0  0  0
 66 67  1  0  0  0  0
M  CHG  2  66   1  68  -1
M  END
$$$$
ZINC03834124
  -OEChem-08230709403D

 65 68  0     1  0  0  0  0  0999 V2000
    3.8335   12.3439    0.2446 H   0  0  0  0  0  0  0  0  0  0  0  0
    1.8770   12.8659    0.0340 C   0  0  0  0  0  0  0  0  0  0  0  0
    0.6173   12.4723   -0.6378 C   0  0  0  0  0  0  0  0  0  0  0  0
   -0.5439   13.2198   -0.4417 C   0  0  0  0  0  0  0  0  0  0  0  0
   -1.7144   12.8485   -1.0705 C   0  0  0  0  0  0  0  0  0  0  0  0
   -1.7366   11.7404   -1.8989 C   0  0  0  0  0  0  0  0  0  0  0  0
   -0.5896   10.9919   -2.0928 C   0  0  0  0  0  0  0  0  0  0  0  0
    0.5873   11.3534   -1.4691 C   0  0  0  0  0  0  0  0  0  0  0  0
   -0.6238    9.7829   -2.9917 C   0  0  0  0  0  0  0  0  0  0  0  0
   -0.9789    8.5440   -2.1669 C   0  0  1  0  0  0  0  0  0  0  0  0
   -1.9452    8.6929   -1.6852 H   0  0  0  0  0  0  0  0  0  0  0  0
   -1.0488    7.3411   -3.0721 C   0  0  0  0  0  0  0  0  0  0  0  0
   -0.0873    6.6106   -3.1852 O   0  0  0  0  0  0  0  0  0  0  0  0
   -2.1799    7.0772   -3.7557 N   0  0  0  0  0  0  0  0  0  0  0  0
   -2.2533    5.8582   -4.5298 C   0  0  0  0  0  0  0  0  0  0  0  0
   -1.7263    6.1103   -5.9581 C   0  0  0  0  0  0  0  0  0  0  0  0
   -2.6789    6.9370   -6.7148 C   0  0  0  0  0  0  0  0  0  0  0  0
   -2.8957    8.3329   -6.1386 C   0  0  0  0  0  0  0  0  0  0  0  0
   -3.9499    8.2709   -5.0610 C   0  0  0  0  0  0  0  0  0  0  0  0
   -3.2903    8.0472   -3.6880 C   0  0  0  0  0  0  0  0  0  0  0  0
    0.0481    8.3271   -1.1449 N   0  0  0  0  0  0  0  0  0  0  0  0
   -0.3749    7.7280    0.3398 S   0  0  0  0  0  0  0  0  0  0  0  0
   -1.4775    8.5024    0.7911 O   0  0  0  0  0  0  0  0  0  0  0  0
    0.8279    7.6074    1.0869 O   0  0  0  0  0  0  0  0  0  0  0  0
   -0.9780    6.0916    0.0888 C   0  0  0  0  0  0  0  0  0  0  0  0
   -0.0902    5.0181    0.1349 C   0  0  0  0  0  0  0  0  0  0  0  0
   -0.5232    3.7419   -0.0547 C   0  0  0  0  0  0  0  0  0  0  0  0
   -1.8854    3.4993   -0.3010 C   0  0  0  0  0  0  0  0  0  0  0  0
   -2.3699    2.1954   -0.5021 C   0  0  0  0  0  0  0  0  0  0  0  0
   -3.6955    1.9987   -0.7387 C   0  0  0  0  0  0  0  0  0  0  0  0
   -4.5824    3.0726   -0.7902 C   0  0  0  0  0  0  0  0  0  0  0  0
   -4.1503    4.3482   -0.5945 C   0  0  0  0  0  0  0  0  0  0  0  0
   -2.7881    4.5908   -0.3480 C   0  0  0  0  0  0  0  0  0  0  0  0
   -2.3037    5.8947   -0.1478 C   0  0  0  0  0  0  0  0  0  0  0  0
    1.9035   13.9720    0.8550 N   0  0  0  0  0  0  0  0  0  0  0  0
   -0.5266   14.0877    0.2009 H   0  0  0  0  0  0  0  0  0  0  0  0
   -2.6142   13.4263   -0.9193 H   0  0  0  0  0  0  0  0  0  0  0  0
   -2.6541   11.4562   -2.3925 H   0  0  0  0  0  0  0  0  0  0  0  0
    1.4831   10.7706   -1.6245 H   0  0  0  0  0  0  0  0  0  0  0  0
    0.3545    9.6447   -3.4522 H   0  0  0  0  0  0  0  0  0  0  0  0
   -1.3739    9.9291   -3.7689 H   0  0  0  0  0  0  0  0  0  0  0  0
   -1.6450    5.0890   -4.0540 H   0  0  0  0  0  0  0  0  0  0  0  0
   -3.2890    5.5220   -4.5799 H   0  0  0  0  0  0  0  0  0  0  0  0
   -1.5920    5.1563   -6.4680 H   0  0  0  0  0  0  0  0  0  0  0  0
   -0.7679    6.6262   -5.8996 H   0  0  0  0  0  0  0  0  0  0  0  0
   -3.6388    6.4212   -6.7427 H   0  0  0  0  0  0  0  0  0  0  0  0
   -2.3115    7.0373   -7.7361 H   0  0  0  0  0  0  0  0  0  0  0  0
   -3.2243    9.0062   -6.9303 H   0  0  0  0  0  0  0  0  0  0  0  0
   -1.9619    8.7002   -5.7130 H   0  0  0  0  0  0  0  0  0  0  0  0
   -4.6341    7.4488   -5.2714 H   0  0  0  0  0  0  0  0  0  0  0  0
   -4.5053    9.2087   -5.0467 H   0  0  0  0  0  0  0  0  0  0  0  0
   -4.0417    7.6770   -2.9904 H   0  0  0  0  0  0  0  0  0  0  0  0
   -2.9066    8.9995   -3.3219 H   0  0  0  0  0  0  0  0  0  0  0  0
    0.9759    8.5344   -1.3378 H   0  0  0  0  0  0  0  0  0  0  0  0
    0.9571    5.2018    0.3244 H   0  0  0  0  0  0  0  0  0  0  0  0
    0.1763    2.9200   -0.0164 H   0  0  0  0  0  0  0  0  0  0  0  0
   -1.6935    1.3539   -0.4694 H   0  0  0  0  0  0  0  0  0  0  0  0
   -4.0651    0.9957   -0.8933 H   0  0  0  0  0  0  0  0  0  0  0  0
   -5.6290    2.8894   -0.9842 H   0  0  0  0  0  0  0  0  0  0  0  0
   -4.8496    5.1702   -0.6337 H   0  0  0  0  0  0  0  0  0  0  0  0
   -2.9799    6.7361   -0.1808 H   0  0  0  0  0  0  0  0  0  0  0  0
    1.0970   14.4931    0.9930 H   0  0  0  0  0  0  0  0  0  0  0  0
    2.7287   14.2298    1.2950 H   0  0  0  0  0  0  0  0  0  0  0  0
    2.9423   12.1137   -0.1952 N   0  3  0  0  0  0  0  0  0  0  0  0
    2.8714   11.2987   -0.8157 H   0  0  0  0  0  0  0  0  0  0  0  0
  1 64  1  0  0  0  0
  2  3  1  0  0  0  0
  2 35  1  0  0  0  0
  2 64  2  0  0  0  0
  3  8  2  0  0  0  0
  3  4  1  0  0  0  0
  4  5  2  0  0  0  0
  4 36  1  0  0  0  0
  5  6  1  0  0  0  0
  5 37  1  0  0  0  0
  6  7  2  0  0  0  0
  6 38  1  0  0  0  0
  7  8  1  0  0  0  0
  7  9  1  0  0  0  0
  8 39  1  0  0  0  0
  9 10  1  0  0  0  0
  9 40  1  0  0  0  0
  9 41  1  0  0  0  0
 10 11  1  0  0  0  0
 10 12  1  0  0  0  0
 10 21  1  0  0  0  0
 12 13  2  0  0  0  0
 12 14  1  0  0  0  0
 14 20  1  0  0  0  0
 14 15  1  0  0  0  0
 15 16  1  0  0  0  0
 15 42  1  0  0  0  0
 15 43  1  0  0  0  0
 16 17  1  0  0  0  0
 16 44  1  0  0  0  0
 16 45  1  0  0  0  0
 17 18  1  0  0  0  0
 17 46  1  0  0  0  0
 17 47  1  0  0  0  0
 18 19  1  0  0  0  0
 18 48  1  0  0  0  0
 18 49  1  0  0  0  0
 19 20  1  0  0  0  0
 19 50  1  0  0  0  0
 19 51  1  0  0  0  0
 20 52  1  0  0  0  0
 20 53  1  0  0  0  0
 21 22  1  0  0  0  0
 21 54  1  0  0  0  0
 22 23  2  0  0  0  0
 22 24  2  0  0  0  0
 22 25  1  0  0  0  0
 25 34  2  0  0  0  0
 25 26  1  0  0  0  0
 26 27  2  0  0  0  0
 26 55  1  0  0  0  0
 27 28  1  0  0  0  0
 27 56  1  0  0  0  0
 28 33  2  0  0  0  0
 28 29  1  0  0  0  0
 29 30  2  0  0  0  0
 29 57  1  0  0  0  0
 30 31  1  0  0  0  0
 30 58  1  0  0  0  0
 31 32  2  0  0  0  0
 31 59  1  0  0  0  0
 32 33  1  0  0  0  0
 32 60  1  0  0  0  0
 33 34  1  0  0  0  0
 34 61  1  0  0  0  0
 35 62  1  0  0  0  0
 35 63  1  0  0  0  0
 64 65  1  0  0  0  0
M  CHG  1  64   1
M  END
$$$$
ZINC03834125
  -OEChem-08230709403D

 71 75  0     1  0  0  0  0  0999 V2000
   -3.5016   14.1347   -2.1633 H   0  0  0  0  0  0  0  0  0  0  0  0
   -1.6357   13.3532   -2.3905 C   0  0  0  0  0  0  0  0  0  0  0  0
   -0.5624   12.6338   -1.6671 C   0  0  0  0  0  0  0  0  0  0  0  0
    0.6223   12.2999   -2.3232 C   0  0  0  0  0  0  0  0  0  0  0  0
    1.6188   11.6300   -1.6437 C   0  0  0  0  0  0  0  0  0  0  0  0
    1.4470   11.2944   -0.3125 C   0  0  0  0  0  0  0  0  0  0  0  0
    0.2722   11.6177    0.3421 C   0  0  0  0  0  0  0  0  0  0  0  0
   -0.7319   12.2877   -0.3270 C   0  0  0  0  0  0  0  0  0  0  0  0
    0.0907   11.2429    1.7905 C   0  0  0  0  0  0  0  0  0  0  0  0
   -0.5468    9.8551    1.8822 C   0  0  1  0  0  0  0  0  0  0  0  0
    0.1111    9.1216    1.4159 H   0  0  0  0  0  0  0  0  0  0  0  0
   -0.7566    9.4933    3.3299 C   0  0  0  0  0  0  0  0  0  0  0  0
   -1.8698    9.5321    3.8095 O   0  0  0  0  0  0  0  0  0  0  0  0
    0.2930    9.1267    4.0918 N   0  0  0  0  0  0  0  0  0  0  0  0
    1.6614    9.1879    3.5604 C   0  0  0  0  0  0  0  0  0  0  0  0
    2.3269    7.8248    3.7412 C   0  0  0  0  0  0  0  0  0  0  0  0
    2.2412    7.4087    5.2115 C   0  0  0  0  0  0  0  0  0  0  0  0
    0.7726    7.2899    5.6250 C   0  0  0  0  0  0  0  0  0  0  0  0
    0.0900    8.6522    5.4674 C   0  0  0  0  0  0  0  0  0  0  0  0
    2.9349    6.0582    5.4002 C   0  0  0  0  0  0  0  0  0  0  0  0
   -1.8374    9.8638    1.1890 N   0  0  0  0  0  0  0  0  0  0  0  0
   -1.9333    9.3694   -0.3886 S   0  0  0  0  0  0  0  0  0  0  0  0
   -0.9016   10.0491   -1.0906 O   0  0  0  0  0  0  0  0  0  0  0  0
   -3.3009    9.4668   -0.7623 O   0  0  0  0  0  0  0  0  0  0  0  0
   -1.5224    7.6564   -0.4237 C   0  0  0  0  0  0  0  0  0  0  0  0
   -2.5184    6.7080   -0.2791 C   0  0  0  0  0  0  0  0  0  0  0  0
   -2.2105    5.3590   -0.3046 C   0  0  0  0  0  0  0  0  0  0  0  0
   -0.8905    4.9519   -0.4763 C   0  0  0  0  0  0  0  0  0  0  0  0
    0.1224    5.9162   -0.6229 C   0  0  0  0  0  0  0  0  0  0  0  0
   -0.2049    7.2688   -0.5953 C   0  0  0  0  0  0  0  0  0  0  0  0
    1.5264    5.4926   -0.8068 C   0  0  0  0  0  0  0  0  0  0  0  0
    2.4017    6.3258   -0.9334 O   0  0  0  0  0  0  0  0  0  0  0  0
    1.8644    4.0541   -0.8355 C   0  0  0  0  0  0  0  0  0  0  0  0
    3.1840    3.6462   -1.0079 C   0  0  0  0  0  0  0  0  0  0  0  0
    3.4913    2.2969   -1.0340 C   0  0  0  0  0  0  0  0  0  0  0  0
    2.4949    1.3487   -0.8903 C   0  0  0  0  0  0  0  0  0  0  0  0
    1.1770    1.7368   -0.7233 C   0  0  0  0  0  0  0  0  0  0  0  0
    0.8513    3.0898   -0.6889 C   0  0  0  0  0  0  0  0  0  0  0  0
   -0.5528    3.5133   -0.5053 C   0  0  0  0  0  0  0  0  0  0  0  0
   -1.4279    2.6801   -0.3780 O   0  0  0  0  0  0  0  0  0  0  0  0
   -1.4653   13.6938   -3.7147 N   0  0  0  0  0  0  0  0  0  0  0  0
    0.7594   12.5656   -3.3610 H   0  0  0  0  0  0  0  0  0  0  0  0
    2.5364   11.3706   -2.1509 H   0  0  0  0  0  0  0  0  0  0  0  0
    2.2317   10.7738    0.2164 H   0  0  0  0  0  0  0  0  0  0  0  0
   -1.6471   12.5433    0.1863 H   0  0  0  0  0  0  0  0  0  0  0  0
   -0.5567   11.9729    2.2762 H   0  0  0  0  0  0  0  0  0  0  0  0
    1.0610   11.2306    2.2869 H   0  0  0  0  0  0  0  0  0  0  0  0
    1.6309    9.4404    2.5005 H   0  0  0  0  0  0  0  0  0  0  0  0
    2.2302    9.9438    4.1019 H   0  0  0  0  0  0  0  0  0  0  0  0
    3.3729    7.8866    3.4410 H   0  0  0  0  0  0  0  0  0  0  0  0
    1.8137    7.0875    3.1239 H   0  0  0  0  0  0  0  0  0  0  0  0
    2.7331    8.1593    5.8303 H   0  0  0  0  0  0  0  0  0  0  0  0
    0.7122    6.9709    6.6655 H   0  0  0  0  0  0  0  0  0  0  0  0
    0.2739    6.5575    4.9900 H   0  0  0  0  0  0  0  0  0  0  0  0
    0.5280    9.3635    6.1677 H   0  0  0  0  0  0  0  0  0  0  0  0
   -0.9772    8.5514    5.6654 H   0  0  0  0  0  0  0  0  0  0  0  0
    2.4428    5.3074    4.7819 H   0  0  0  0  0  0  0  0  0  0  0  0
    3.9809    6.1426    5.1058 H   0  0  0  0  0  0  0  0  0  0  0  0
    2.8750    5.7622    6.4476 H   0  0  0  0  0  0  0  0  0  0  0  0
   -2.6357   10.1591    1.6542 H   0  0  0  0  0  0  0  0  0  0  0  0
   -3.5432    7.0220   -0.1458 H   0  0  0  0  0  0  0  0  0  0  0  0
   -2.9930    4.6233   -0.1911 H   0  0  0  0  0  0  0  0  0  0  0  0
    0.5680    8.0148   -0.7072 H   0  0  0  0  0  0  0  0  0  0  0  0
    3.9671    4.3814   -1.1207 H   0  0  0  0  0  0  0  0  0  0  0  0
    4.5157    1.9825   -1.1678 H   0  0  0  0  0  0  0  0  0  0  0  0
    2.7462    0.2986   -0.9130 H   0  0  0  0  0  0  0  0  0  0  0  0
    0.4031    0.9913   -0.6156 H   0  0  0  0  0  0  0  0  0  0  0  0
   -0.6424   13.4623   -4.1730 H   0  0  0  0  0  0  0  0  0  0  0  0
   -2.1684   14.1651   -4.1885 H   0  0  0  0  0  0  0  0  0  0  0  0
   -2.7340   13.6401   -1.7089 N   0  3  0  0  0  0  0  0  0  0  0  0
   -2.8129   13.3646   -0.7229 H   0  0  0  0  0  0  0  0  0  0  0  0
  1 70  1  0  0  0  0
  2  3  1  0  0  0  0
  2 41  1  0  0  0  0
  2 70  2  0  0  0  0
  3  8  2  0  0  0  0
  3  4  1  0  0  0  0
  4  5  2  0  0  0  0
  4 42  1  0  0  0  0
  5  6  1  0  0  0  0
  5 43  1  0  0  0  0
  6  7  2  0  0  0  0
  6 44  1  0  0  0  0
  7  8  1  0  0  0  0
  7  9  1  0  0  0  0
  8 45  1  0  0  0  0
  9 10  1  0  0  0  0
  9 46  1  0  0  0  0
  9 47  1  0  0  0  0
 10 11  1  0  0  0  0
 10 12  1  0  0  0  0
 10 21  1  0  0  0  0
 12 13  2  0  0  0  0
 12 14  1  0  0  0  0
 14 19  1  0  0  0  0
 14 15  1  0  0  0  0
 15 16  1  0  0  0  0
 15 48  1  0  0  0  0
 15 49  1  0  0  0  0
 16 17  1  0  0  0  0
 16 50  1  0  0  0  0
 16 51  1  0  0  0  0
 17 18  1  0  0  0  0
 17 20  1  0  0  0  0
 17 52  1  0  0  0  0
 18 19  1  0  0  0  0
 18 53  1  0  0  0  0
 18 54  1  0  0  0  0
 19 55  1  0  0  0  0
 19 56  1  0  0  0  0
 20 57  1  0  0  0  0
 20 58  1  0  0  0  0
 20 59  1  0  0  0  0
 21 22  1  0  0  0  0
 21 60  1  0  0  0  0
 22 23  2  0  0  0  0
 22 24  2  0  0  0  0
 22 25  1  0  0  0  0
 25 30  2  0  0  0  0
 25 26  1  0  0  0  0
 26 27  2  0  0  0  0
 26 61  1  0  0  0  0
 27 28  1  0  0  0  0
 27 62  1  0  0  0  0
 28 39  1  0  0  0  0
 28 29  2  0  0  0  0
 29 30  1  0  0  0  0
 29 31  1  0  0  0  0
 30 63  1  0  0  0  0
 31 32  2  0  0  0  0
 31 33  1  0  0  0  0
 33 38  2  0  0  0  0
 33 34  1  0  0  0  0
 34 35  2  0  0  0  0
 34 64  1  0  0  0  0
 35 36  1  0  0  0  0
 35 65  1  0  0  0  0
 36 37  2  0  0  0  0
 36 66  1  0  0  0  0
 37 38  1  0  0  0  0
 37 67  1  0  0  0  0
 38 39  1  0  0  0  0
 39 40  2  0  0  0  0
 41 68  1  0  0  0  0
 41 69  1  0  0  0  0
 70 71  1  0  0  0  0
M  CHG  1  70   1
M  END
$$$$
ZINC03834126
  -OEChem-08230709403D

 62 64  0     1  0  0  0  0  0999 V2000
   -2.0294    3.2254   -0.3442 H   0  0  0  0  0  0  0  0  0  0  0  0
   -0.3904    2.0293   -0.1776 C   0  0  0  0  0  0  0  0  0  0  0  0
    0.0300    0.6138   -0.0658 C   0  0  0  0  0  0  0  0  0  0  0  0
    1.3841    0.2902    0.0190 C   0  0  0  0  0  0  0  0  0  0  0  0
    1.7692   -1.0301    0.1296 C   0  0  0  0  0  0  0  0  0  0  0  0
    0.8160   -2.0328    0.1438 C   0  0  0  0  0  0  0  0  0  0  0  0
   -0.5280   -1.7185    0.0540 C   0  0  0  0  0  0  0  0  0  0  0  0
   -0.9260   -0.4011   -0.0505 C   0  0  0  0  0  0  0  0  0  0  0  0
   -1.5598   -2.8167    0.0706 C   0  0  0  0  0  0  0  0  0  0  0  0
   -1.8348   -3.2800   -1.3614 C   0  0  1  0  0  0  0  0  0  0  0  0
   -0.8968   -3.5663   -1.8371 H   0  0  0  0  0  0  0  0  0  0  0  0
   -2.7671   -4.4637   -1.3362 C   0  0  0  0  0  0  0  0  0  0  0  0
   -3.9544   -4.3047   -1.5262 O   0  0  0  0  0  0  0  0  0  0  0  0
   -2.2816   -5.6990   -1.1024 N   0  0  0  0  0  0  0  0  0  0  0  0
   -0.8647   -5.8954   -0.7670 C   0  0  0  0  0  0  0  0  0  0  0  0
   -0.2641   -6.9222   -1.7255 C   0  0  0  0  0  0  0  0  0  0  0  0
   -1.1023   -8.2021   -1.6889 C   0  0  0  0  0  0  0  0  0  0  0  0
   -2.5304   -7.8920   -2.1434 C   0  0  0  0  0  0  0  0  0  0  0  0
   -3.1578   -6.8756   -1.1841 C   0  0  0  0  0  0  0  0  0  0  0  0
   -0.4843   -9.2430   -2.6246 C   0  0  0  0  0  0  0  0  0  0  0  0
   -2.4525   -2.1879   -2.1178 N   0  0  0  0  0  0  0  0  0  0  0  0
   -2.1053   -1.9942   -3.7254 S   0  0  0  0  0  0  0  0  0  0  0  0
   -2.8685   -0.8829   -4.1747 O   0  0  0  0  0  0  0  0  0  0  0  0
   -0.6901   -2.0444   -3.8441 O   0  0  0  0  0  0  0  0  0  0  0  0
   -2.7319   -3.4092   -4.5678 C   0  0  0  0  0  0  0  0  0  0  0  0
   -1.9288   -4.5204   -4.7444 C   0  0  0  0  0  0  0  0  0  0  0  0
   -2.4219   -5.6321   -5.4016 C   0  0  0  0  0  0  0  0  0  0  0  0
   -3.7149   -5.6291   -5.8905 C   0  0  0  0  0  0  0  0  0  0  0  0
   -4.5164   -4.5160   -5.7181 C   0  0  0  0  0  0  0  0  0  0  0  0
   -4.0248   -3.4060   -5.0572 C   0  0  0  0  0  0  0  0  0  0  0  0
   -4.2509   -6.8392   -6.6110 C   0  0  0  0  0  0  0  0  0  0  0  0
    0.5565    3.0301   -0.1924 N   0  0  0  0  0  0  0  0  0  0  0  0
    2.1292    1.0718    0.0031 H   0  0  0  0  0  0  0  0  0  0  0  0
    2.8171   -1.2816    0.2005 H   0  0  0  0  0  0  0  0  0  0  0  0
    1.1226   -3.0651    0.2257 H   0  0  0  0  0  0  0  0  0  0  0  0
   -1.9757   -0.1569   -0.1198 H   0  0  0  0  0  0  0  0  0  0  0  0
   -1.1880   -3.6557    0.6588 H   0  0  0  0  0  0  0  0  0  0  0  0
   -2.4821   -2.4421    0.5148 H   0  0  0  0  0  0  0  0  0  0  0  0
   -0.3314   -4.9499   -0.8657 H   0  0  0  0  0  0  0  0  0  0  0  0
   -0.7786   -6.2607    0.2563 H   0  0  0  0  0  0  0  0  0  0  0  0
    0.7587   -7.1483   -1.4241 H   0  0  0  0  0  0  0  0  0  0  0  0
   -0.2646   -6.5158   -2.7370 H   0  0  0  0  0  0  0  0  0  0  0  0
   -1.1219   -8.5942   -0.6720 H   0  0  0  0  0  0  0  0  0  0  0  0
   -3.1206   -8.8083   -2.1394 H   0  0  0  0  0  0  0  0  0  0  0  0
   -2.5094   -7.4765   -3.1508 H   0  0  0  0  0  0  0  0  0  0  0  0
   -3.2625   -7.3225   -0.1955 H   0  0  0  0  0  0  0  0  0  0  0  0
   -4.1371   -6.5766   -1.5579 H   0  0  0  0  0  0  0  0  0  0  0  0
   -0.4652   -8.8514   -3.6417 H   0  0  0  0  0  0  0  0  0  0  0  0
    0.5327   -9.4641   -2.3011 H   0  0  0  0  0  0  0  0  0  0  0  0
   -1.0805  -10.1552   -2.5978 H   0  0  0  0  0  0  0  0  0  0  0  0
   -3.0647   -1.5783   -1.6770 H   0  0  0  0  0  0  0  0  0  0  0  0
   -0.9173   -4.5212   -4.3660 H   0  0  0  0  0  0  0  0  0  0  0  0
   -1.7958   -6.5019   -5.5359 H   0  0  0  0  0  0  0  0  0  0  0  0
   -5.5266   -4.5136   -6.1002 H   0  0  0  0  0  0  0  0  0  0  0  0
   -4.6509   -2.5362   -4.9229 H   0  0  0  0  0  0  0  0  0  0  0  0
   -4.0421   -6.7495   -7.6771 H   0  0  0  0  0  0  0  0  0  0  0  0
   -3.7705   -7.7366   -6.2210 H   0  0  0  0  0  0  0  0  0  0  0  0
   -5.3277   -6.9070   -6.4561 H   0  0  0  0  0  0  0  0  0  0  0  0
    1.4985    2.8075   -0.1296 H   0  0  0  0  0  0  0  0  0  0  0  0
    0.2811    3.9573   -0.2657 H   0  0  0  0  0  0  0  0  0  0  0  0
   -1.6901    2.2666   -0.2654 N   0  3  0  0  0  0  0  0  0  0  0  0
   -2.3565    1.4855   -0.2542 H   0  0  0  0  0  0  0  0  0  0  0  0
  1 61  1  0  0  0  0
  2  3  1  0  0  0  0
  2 32  1  0  0  0  0
  2 61  2  0  0  0  0
  3  8  2  0  0  0  0
  3  4  1  0  0  0  0
  4  5  2  0  0  0  0
  4 33  1  0  0  0  0
  5  6  1  0  0  0  0
  5 34  1  0  0  0  0
  6  7  2  0  0  0  0
  6 35  1  0  0  0  0
  7  8  1  0  0  0  0
  7  9  1  0  0  0  0
  8 36  1  0  0  0  0
  9 10  1  0  0  0  0
  9 37  1  0  0  0  0
  9 38  1  0  0  0  0
 10 11  1  0  0  0  0
 10 12  1  0  0  0  0
 10 21  1  0  0  0  0
 12 13  2  0  0  0  0
 12 14  1  0  0  0  0
 14 19  1  0  0  0  0
 14 15  1  0  0  0  0
 15 16  1  0  0  0  0
 15 39  1  0  0  0  0
 15 40  1  0  0  0  0
 16 17  1  0  0  0  0
 16 41  1  0  0  0  0
 16 42  1  0  0  0  0
 17 18  1  0  0  0  0
 17 20  1  0  0  0  0
 17 43  1  0  0  0  0
 18 19  1  0  0  0  0
 18 44  1  0  0  0  0
 18 45  1  0  0  0  0
 19 46  1  0  0  0  0
 19 47  1  0  0  0  0
 20 48  1  0  0  0  0
 20 49  1  0  0  0  0
 20 50  1  0  0  0  0
 21 22  1  0  0  0  0
 21 51  1  0  0  0  0
 22 23  2  0  0  0  0
 22 24  2  0  0  0  0
 22 25  1  0  0  0  0
 25 30  2  0  0  0  0
 25 26  1  0  0  0  0
 26 27  2  0  0  0  0
 26 52  1  0  0  0  0
 27 28  1  0  0  0  0
 27 53  1  0  0  0  0
 28 29  2  0  0  0  0
 28 31  1  0  0  0  0
 29 30  1  0  0  0  0
 29 54  1  0  0  0  0
 30 55  1  0  0  0  0
 31 56  1  0  0  0  0
 31 57  1  0  0  0  0
 31 58  1  0  0  0  0
 32 59  1  0  0  0  0
 32 60  1  0  0  0  0
 61 62  1  0  0  0  0
M  CHG  1  61   1
M  END
$$$$
ZINC03834127
  -OEChem-08230709403D

 74 76  0     1  0  0  0  0  0999 V2000
   -3.1339    0.3870   -4.2976 H   0  0  0  0  0  0  0  0  0  0  0  0
   -4.7748    0.3201   -3.0945 C   0  0  0  0  0  0  0  0  0  0  0  0
   -5.5504    1.1122   -2.1126 C   0  0  0  0  0  0  0  0  0  0  0  0
   -6.6929    0.5716   -1.5228 C   0  0  0  0  0  0  0  0  0  0  0  0
   -7.4112    1.3146   -0.6088 C   0  0  0  0  0  0  0  0  0  0  0  0
   -7.0006    2.5936   -0.2772 C   0  0  0  0  0  0  0  0  0  0  0  0
   -5.8681    3.1349   -0.8584 C   0  0  0  0  0  0  0  0  0  0  0  0
   -5.1441    2.4035   -1.7780 C   0  0  0  0  0  0  0  0  0  0  0  0
   -5.4275    4.5285   -0.4913 C   0  0  0  0  0  0  0  0  0  0  0  0
   -4.4729    4.4637    0.7026 C   0  0  1  0  0  0  0  0  0  0  0  0
   -3.5896    3.8857    0.4306 H   0  0  0  0  0  0  0  0  0  0  0  0
   -4.0595    5.8598    1.0916 C   0  0  0  0  0  0  0  0  0  0  0  0
   -4.6599    6.4485    1.9655 O   0  0  0  0  0  0  0  0  0  0  0  0
   -3.0227    6.4539    0.4684 N   0  0  0  0  0  0  0  0  0  0  0  0
   -2.3542    5.7967   -0.6635 C   0  0  0  0  0  0  0  0  0  0  0  0
   -2.3745    6.7580   -1.8640 C   0  0  0  0  0  0  0  0  0  0  0  0
   -1.8882    8.0719   -1.4200 N   0  0  0  0  0  0  0  0  0  0  0  0
   -2.5532    8.7265   -0.2845 C   0  0  0  0  0  0  0  0  0  0  0  0
   -2.5364    7.7677    0.9124 C   0  0  0  0  0  0  0  0  0  0  0  0
   -0.6142    8.8020   -2.1857 S   0  0  0  0  0  0  0  0  0  0  0  0
   -0.6307    8.2709   -3.5036 O   0  0  0  0  0  0  0  0  0  0  0  0
   -0.8054   10.1923   -1.9626 O   0  0  0  0  0  0  0  0  0  0  0  0
    0.8575    8.2231   -1.2972 C   0  0  0  0  0  0  0  0  0  0  0  0
   -5.1478    3.8213    1.8331 N   0  0  0  0  0  0  0  0  0  0  0  0
   -4.9572    2.1977    2.0973 S   0  0  0  0  0  0  0  0  0  0  0  0
   -5.1875    1.5538    0.8517 O   0  0  0  0  0  0  0  0  0  0  0  0
   -5.7036    1.8860    3.2655 O   0  0  0  0  0  0  0  0  0  0  0  0
   -3.2620    1.9303    2.4966 C   0  0  0  0  0  0  0  0  0  0  0  0
   -2.8081    2.1746    3.7798 C   0  0  0  0  0  0  0  0  0  0  0  0
   -1.4798    1.9658    4.0954 C   0  0  0  0  0  0  0  0  0  0  0  0
   -0.6004    1.5105    3.1235 C   0  0  0  0  0  0  0  0  0  0  0  0
   -1.0580    1.2661    1.8370 C   0  0  0  0  0  0  0  0  0  0  0  0
   -2.3867    1.4816    1.5251 C   0  0  0  0  0  0  0  0  0  0  0  0
   -2.8833    1.2218    0.1262 C   0  0  0  0  0  0  0  0  0  0  0  0
   -0.1055    0.7720    0.7789 C   0  0  0  0  0  0  0  0  0  0  0  0
    0.7072    1.3047    3.4313 O   0  0  0  0  0  0  0  0  0  0  0  0
    1.1078    1.5771    4.7757 C   0  0  0  0  0  0  0  0  0  0  0  0
   -3.7638    2.6696    4.8347 C   0  0  0  0  0  0  0  0  0  0  0  0
   -5.1815   -0.9537   -3.4270 N   0  0  0  0  0  0  0  0  0  0  0  0
   -7.0147   -0.4263   -1.7814 H   0  0  0  0  0  0  0  0  0  0  0  0
   -8.2960    0.8972   -0.1514 H   0  0  0  0  0  0  0  0  0  0  0  0
   -7.5663    3.1715    0.4386 H   0  0  0  0  0  0  0  0  0  0  0  0
   -4.2627    2.8289   -2.2344 H   0  0  0  0  0  0  0  0  0  0  0  0
   -6.2991    5.1275   -0.2276 H   0  0  0  0  0  0  0  0  0  0  0  0
   -4.9172    4.9837   -1.3402 H   0  0  0  0  0  0  0  0  0  0  0  0
   -1.3237    5.5642   -0.3949 H   0  0  0  0  0  0  0  0  0  0  0  0
   -2.8842    4.8791   -0.9187 H   0  0  0  0  0  0  0  0  0  0  0  0
   -3.3923    6.8533   -2.2422 H   0  0  0  0  0  0  0  0  0  0  0  0
   -1.7259    6.3750   -2.6518 H   0  0  0  0  0  0  0  0  0  0  0  0
   -3.5837    8.9620   -0.5503 H   0  0  0  0  0  0  0  0  0  0  0  0
   -2.0234    9.6435   -0.0263 H   0  0  0  0  0  0  0  0  0  0  0  0
   -3.1868    8.1522    1.6981 H   0  0  0  0  0  0  0  0  0  0  0  0
   -1.5197    7.6719    1.2934 H   0  0  0  0  0  0  0  0  0  0  0  0
    0.9171    7.1366   -1.3619 H   0  0  0  0  0  0  0  0  0  0  0  0
    1.7486    8.6630   -1.7448 H   0  0  0  0  0  0  0  0  0  0  0  0
    0.7911    8.5216   -0.2510 H   0  0  0  0  0  0  0  0  0  0  0  0
   -5.7063    4.3470    2.4269 H   0  0  0  0  0  0  0  0  0  0  0  0
   -1.1260    2.1565    5.0978 H   0  0  0  0  0  0  0  0  0  0  0  0
   -3.2210    0.1885    0.0466 H   0  0  0  0  0  0  0  0  0  0  0  0
   -3.7129    1.8932   -0.0954 H   0  0  0  0  0  0  0  0  0  0  0  0
   -2.0753    1.3958   -0.5844 H   0  0  0  0  0  0  0  0  0  0  0  0
   -0.0899   -0.3178    0.7844 H   0  0  0  0  0  0  0  0  0  0  0  0
    0.8955    1.1508    0.9856 H   0  0  0  0  0  0  0  0  0  0  0  0
   -0.4331    1.1259   -0.1987 H   0  0  0  0  0  0  0  0  0  0  0  0
    0.5428    0.9430    5.4588 H   0  0  0  0  0  0  0  0  0  0  0  0
    2.1726    1.3720    4.8862 H   0  0  0  0  0  0  0  0  0  0  0  0
    0.9137    2.6243    5.0075 H   0  0  0  0  0  0  0  0  0  0  0  0
   -3.8937    3.7468    4.7306 H   0  0  0  0  0  0  0  0  0  0  0  0
   -4.7270    2.1741    4.7138 H   0  0  0  0  0  0  0  0  0  0  0  0
   -3.3617    2.4460    5.8229 H   0  0  0  0  0  0  0  0  0  0  0  0
   -5.9758   -1.3315   -3.0181 H   0  0  0  0  0  0  0  0  0  0  0  0
   -4.6736   -1.4726   -4.0702 H   0  0  0  0  0  0  0  0  0  0  0  0
   -3.7010    0.8923   -3.6166 N   0  3  0  0  0  0  0  0  0  0  0  0
   -3.4391    1.8447   -3.3362 H   0  0  0  0  0  0  0  0  0  0  0  0
  1 73  1  0  0  0  0
  2  3  1  0  0  0  0
  2 39  1  0  0  0  0
  2 73  2  0  0  0  0
  3  8  2  0  0  0  0
  3  4  1  0  0  0  0
  4  5  2  0  0  0  0
  4 40  1  0  0  0  0
  5  6  1  0  0  0  0
  5 41  1  0  0  0  0
  6  7  2  0  0  0  0
  6 42  1  0  0  0  0
  7  8  1  0  0  0  0
  7  9  1  0  0  0  0
  8 43  1  0  0  0  0
  9 10  1  0  0  0  0
  9 44  1  0  0  0  0
  9 45  1  0  0  0  0
 10 11  1  0  0  0  0
 10 12  1  0  0  0  0
 10 24  1  0  0  0  0
 12 13  2  0  0  0  0
 12 14  1  0  0  0  0
 14 19  1  0  0  0  0
 14 15  1  0  0  0  0
 15 16  1  0  0  0  0
 15 46  1  0  0  0  0
 15 47  1  0  0  0  0
 16 17  1  0  0  0  0
 16 48  1  0  0  0  0
 16 49  1  0  0  0  0
 17 18  1  0  0  0  0
 17 20  1  0  0  0  0
 18 19  1  0  0  0  0
 18 50  1  0  0  0  0
 18 51  1  0  0  0  0
 19 52  1  0  0  0  0
 19 53  1  0  0  0  0
 20 21  2  0  0  0  0
 20 22  2  0  0  0  0
 20 23  1  0  0  0  0
 23 54  1  0  0  0  0
 23 55  1  0  0  0  0
 23 56  1  0  0  0  0
 24 25  1  0  0  0  0
 24 57  1  0  0  0  0
 25 26  2  0  0  0  0
 25 27  2  0  0  0  0
 25 28  1  0  0  0  0
 28 33  2  0  0  0  0
 28 29  1  0  0  0  0
 29 30  2  0  0  0  0
 29 38  1  0  0  0  0
 30 31  1  0  0  0  0
 30 58  1  0  0  0  0
 31 32  2  0  0  0  0
 31 36  1  0  0  0  0
 32 33  1  0  0  0  0
 32 35  1  0  0  0  0
 33 34  1  0  0  0  0
 34 59  1  0  0  0  0
 34 60  1  0  0  0  0
 34 61  1  0  0  0  0
 35 62  1  0  0  0  0
 35 63  1  0  0  0  0
 35 64  1  0  0  0  0
 36 37  1  0  0  0  0
 37 65  1  0  0  0  0
 37 66  1  0  0  0  0
 37 67  1  0  0  0  0
 38 68  1  0  0  0  0
 38 69  1  0  0  0  0
 38 70  1  0  0  0  0
 39 71  1  0  0  0  0
 39 72  1  0  0  0  0
 73 74  1  0  0  0  0
M  CHG  1  73   1
M  END
$$$$
ZINC03834128
  -OEChem-08230709403D

 73 76  0     1  0  0  0  0  0999 V2000
    2.6084   -1.7259   -0.0275 H   0  0  0  0  0  0  0  0  0  0  0  0
    0.8445   -0.7092   -0.0205 C   0  0  0  0  0  0  0  0  0  0  0  0
    0.2701    0.6556   -0.0157 C   0  0  0  0  0  0  0  0  0  0  0  0
   -1.1134    0.8330   -0.0175 C   0  0  0  0  0  0  0  0  0  0  0  0
   -1.6426    2.1071   -0.0072 C   0  0  0  0  0  0  0  0  0  0  0  0
   -0.8040    3.2076   -0.0072 C   0  0  0  0  0  0  0  0  0  0  0  0
    0.5688    3.0381   -0.0111 C   0  0  0  0  0  0  0  0  0  0  0  0
    1.1100    1.7686   -0.0152 C   0  0  0  0  0  0  0  0  0  0  0  0
    1.4752    4.2420   -0.0107 C   0  0  0  0  0  0  0  0  0  0  0  0
    1.7786    4.6526   -1.4529 C   0  0  1  0  0  0  0  0  0  0  0  0
    0.8505    4.9221   -1.9570 H   0  0  0  0  0  0  0  0  0  0  0  0
    2.7119    5.8358   -1.4526 C   0  0  0  0  0  0  0  0  0  0  0  0
    3.8942    5.6756   -1.6704 O   0  0  0  0  0  0  0  0  0  0  0  0
    2.2328    7.0720   -1.2104 N   0  0  0  0  0  0  0  0  0  0  0  0
    0.8269    7.2691   -0.8318 C   0  0  0  0  0  0  0  0  0  0  0  0
    0.1957    8.2903   -1.7764 C   0  0  0  0  0  0  0  0  0  0  0  0
    1.0333    9.5710   -1.7730 C   0  0  0  0  0  0  0  0  0  0  0  0
    2.4468    9.2596   -2.2702 C   0  0  0  0  0  0  0  0  0  0  0  0
    3.1049    8.2488   -1.3257 C   0  0  0  0  0  0  0  0  0  0  0  0
    0.3855   10.6064   -2.6944 C   0  0  0  0  0  0  0  0  0  0  0  0
    2.4093    3.5333   -2.1570 N   0  0  0  0  0  0  0  0  0  0  0  0
    1.4862    2.4995   -3.0632 S   0  0  0  0  0  0  0  0  0  0  0  0
    2.3786    1.5512   -3.6325 O   0  0  0  0  0  0  0  0  0  0  0  0
    0.3863    2.1171   -2.2488 O   0  0  0  0  0  0  0  0  0  0  0  0
    0.8214    3.4323   -4.4021 C   0  0  0  0  0  0  0  0  0  0  0  0
   -0.4001    4.0658   -4.2643 C   0  0  0  0  0  0  0  0  0  0  0  0
   -0.9178    4.7992   -5.3119 C   0  0  0  0  0  0  0  0  0  0  0  0
   -0.2201    4.8948   -6.5119 C   0  0  0  0  0  0  0  0  0  0  0  0
    1.0009    4.2582   -6.6476 C   0  0  0  0  0  0  0  0  0  0  0  0
    1.5174    3.5262   -5.5911 C   0  0  0  0  0  0  0  0  0  0  0  0
    1.7951    4.3461   -7.9262 C   0  0  0  0  0  0  0  0  0  0  0  0
    0.8846    4.8038   -9.0683 C   0  0  0  0  0  0  0  0  0  0  0  0
    0.0897    6.0259   -8.5910 C   0  0  0  0  0  0  0  0  0  0  0  0
   -0.7674    5.6169   -7.5241 O   0  0  0  0  0  0  0  0  0  0  0  0
   -0.7506    6.5769   -9.7447 C   0  0  0  0  0  0  0  0  0  0  0  0
    1.0527    7.1057   -8.0933 C   0  0  0  0  0  0  0  0  0  0  0  0
    0.0119   -1.8072   -0.0210 N   0  0  0  0  0  0  0  0  0  0  0  0
   -1.7690   -0.0251   -0.0223 H   0  0  0  0  0  0  0  0  0  0  0  0
   -2.7136    2.2458   -0.0038 H   0  0  0  0  0  0  0  0  0  0  0  0
   -1.2229    4.2030   -0.0037 H   0  0  0  0  0  0  0  0  0  0  0  0
    2.1821    1.6374   -0.0176 H   0  0  0  0  0  0  0  0  0  0  0  0
    0.9838    5.0665    0.5061 H   0  0  0  0  0  0  0  0  0  0  0  0
    2.4059    3.9959    0.5005 H   0  0  0  0  0  0  0  0  0  0  0  0
    0.2916    6.3226   -0.9087 H   0  0  0  0  0  0  0  0  0  0  0  0
    0.7725    7.6398    0.1917 H   0  0  0  0  0  0  0  0  0  0  0  0
   -0.8175    8.5172   -1.4445 H   0  0  0  0  0  0  0  0  0  0  0  0
    0.1647    7.8786   -2.7853 H   0  0  0  0  0  0  0  0  0  0  0  0
    1.0844    9.9685   -0.7592 H   0  0  0  0  0  0  0  0  0  0  0  0
    3.0360   10.1764   -2.2896 H   0  0  0  0  0  0  0  0  0  0  0  0
    2.3947    8.8387   -3.2743 H   0  0  0  0  0  0  0  0  0  0  0  0
    3.2402    8.7011   -0.3432 H   0  0  0  0  0  0  0  0  0  0  0  0
    4.0723    7.9486   -1.7284 H   0  0  0  0  0  0  0  0  0  0  0  0
    0.3348   10.2093   -3.7082 H   0  0  0  0  0  0  0  0  0  0  0  0
   -0.6213   10.8284   -2.3404 H   0  0  0  0  0  0  0  0  0  0  0  0
    0.9813   11.5191   -2.6911 H   0  0  0  0  0  0  0  0  0  0  0  0
    3.3676    3.3977   -2.0921 H   0  0  0  0  0  0  0  0  0  0  0  0
   -0.9465    3.9898   -3.3357 H   0  0  0  0  0  0  0  0  0  0  0  0
   -1.8700    5.2968   -5.2018 H   0  0  0  0  0  0  0  0  0  0  0  0
    2.4687    3.0262   -5.6980 H   0  0  0  0  0  0  0  0  0  0  0  0
    2.6069    5.0624   -7.8002 H   0  0  0  0  0  0  0  0  0  0  0  0
    2.2101    3.3665   -8.1634 H   0  0  0  0  0  0  0  0  0  0  0  0
    0.1980    4.0003   -9.3352 H   0  0  0  0  0  0  0  0  0  0  0  0
    1.4884    5.0737   -9.9346 H   0  0  0  0  0  0  0  0  0  0  0  0
   -1.3285    7.4331   -9.3968 H   0  0  0  0  0  0  0  0  0  0  0  0
   -0.0934    6.8879  -10.5568 H   0  0  0  0  0  0  0  0  0  0  0  0
   -1.4287    5.8021  -10.1026 H   0  0  0  0  0  0  0  0  0  0  0  0
    1.6559    6.7068   -7.2779 H   0  0  0  0  0  0  0  0  0  0  0  0
    1.7049    7.4152   -8.9100 H   0  0  0  0  0  0  0  0  0  0  0  0
    0.4833    7.9645   -7.7377 H   0  0  0  0  0  0  0  0  0  0  0  0
   -0.9504   -1.6860   -0.0181 H   0  0  0  0  0  0  0  0  0  0  0  0
    0.3882   -2.7011   -0.0241 H   0  0  0  0  0  0  0  0  0  0  0  0
    2.1650   -0.8071   -0.0242 N   0  3  0  0  0  0  0  0  0  0  0  0
    2.7427    0.0417   -0.0236 H   0  0  0  0  0  0  0  0  0  0  0  0
  1 72  1  0  0  0  0
  2  3  1  0  0  0  0
  2 37  1  0  0  0  0
  2 72  2  0  0  0  0
  3  8  2  0  0  0  0
  3  4  1  0  0  0  0
  4  5  2  0  0  0  0
  4 38  1  0  0  0  0
  5  6  1  0  0  0  0
  5 39  1  0  0  0  0
  6  7  2  0  0  0  0
  6 40  1  0  0  0  0
  7  8  1  0  0  0  0
  7  9  1  0  0  0  0
  8 41  1  0  0  0  0
  9 10  1  0  0  0  0
  9 42  1  0  0  0  0
  9 43  1  0  0  0  0
 10 11  1  0  0  0  0
 10 12  1  0  0  0  0
 10 21  1  0  0  0  0
 12 13  2  0  0  0  0
 12 14  1  0  0  0  0
 14 19  1  0  0  0  0
 14 15  1  0  0  0  0
 15 16  1  0  0  0  0
 15 44  1  0  0  0  0
 15 45  1  0  0  0  0
 16 17  1  0  0  0  0
 16 46  1  0  0  0  0
 16 47  1  0  0  0  0
 17 18  1  0  0  0  0
 17 20  1  0  0  0  0
 17 48  1  0  0  0  0
 18 19  1  0  0  0  0
 18 49  1  0  0  0  0
 18 50  1  0  0  0  0
 19 51  1  0  0  0  0
 19 52  1  0  0  0  0
 20 53  1  0  0  0  0
 20 54  1  0  0  0  0
 20 55  1  0  0  0  0
 21 22  1  0  0  0  0
 21 56  1  0  0  0  0
 22 23  2  0  0  0  0
 22 24  2  0  0  0  0
 22 25  1  0  0  0  0
 25 30  2  0  0  0  0
 25 26  1  0  0  0  0
 26 27  2  0  0  0  0
 26 57  1  0  0  0  0
 27 28  1  0  0  0  0
 27 58  1  0  0  0  0
 28 34  1  0  0  0  0
 28 29  2  0  0  0  0
 29 30  1  0  0  0  0
 29 31  1  0  0  0  0
 30 59  1  0  0  0  0
 31 32  1  0  0  0  0
 31 60  1  0  0  0  0
 31 61  1  0  0  0  0
 32 33  1  0  0  0  0
 32 62  1  0  0  0  0
 32 63  1  0  0  0  0
 33 34  1  0  0  0  0
 33 35  1  0  0  0  0
 33 36  1  0  0  0  0
 35 64  1  0  0  0  0
 35 65  1  0  0  0  0
 35 66  1  0  0  0  0
 36 67  1  0  0  0  0
 36 68  1  0  0  0  0
 36 69  1  0  0  0  0
 37 70  1  0  0  0  0
 37 71  1  0  0  0  0
 72 73  1  0  0  0  0
M  CHG  1  72   1
M  END
$$$$
ZINC03834129
  -OEChem-08230709403D

 66 70  0     1  0  0  0  0  0999 V2000
   -1.4717    3.0476    0.0255 H   0  0  0  0  0  0  0  0  0  0  0  0
    0.0746    1.7234    0.0111 C   0  0  0  0  0  0  0  0  0  0  0  0
    0.3877    0.2760    0.0017 C   0  0  0  0  0  0  0  0  0  0  0  0
    1.7145   -0.1532   -0.0185 C   0  0  0  0  0  0  0  0  0  0  0  0
    2.0000   -1.5031   -0.0213 C   0  0  0  0  0  0  0  0  0  0  0  0
    0.9729   -2.4301   -0.0162 C   0  0  0  0  0  0  0  0  0  0  0  0
   -0.3450   -2.0105   -0.0014 C   0  0  0  0  0  0  0  0  0  0  0  0
   -0.6430   -0.6631    0.0073 C   0  0  0  0  0  0  0  0  0  0  0  0
   -1.4577   -3.0269    0.0046 C   0  0  0  0  0  0  0  0  0  0  0  0
   -1.8479   -3.3645   -1.4358 C   0  0  1  0  0  0  0  0  0  0  0  0
   -0.9643   -3.6906   -1.9846 H   0  0  0  0  0  0  0  0  0  0  0  0
   -2.8734   -4.4688   -1.4327 C   0  0  0  0  0  0  0  0  0  0  0  0
   -3.9677   -4.2815   -1.9209 O   0  0  0  0  0  0  0  0  0  0  0  0
   -2.5744   -5.6645   -0.8876 N   0  0  0  0  0  0  0  0  0  0  0  0
   -3.5558   -6.7619   -0.8631 C   0  0  0  0  0  0  0  0  0  0  0  0
   -3.0014   -7.8997   -1.7275 C   0  0  0  0  0  0  0  0  0  0  0  0
   -1.5634   -8.1831   -1.3813 C   0  0  0  0  0  0  0  0  0  0  0  0
   -1.0437   -9.4185   -1.7492 C   0  0  0  0  0  0  0  0  0  0  0  0
    0.2693   -9.7376   -1.4738 C   0  0  0  0  0  0  0  0  0  0  0  0
    1.0781   -8.8222   -0.8257 C   0  0  0  0  0  0  0  0  0  0  0  0
    0.5637   -7.5968   -0.4556 C   0  0  0  0  0  0  0  0  0  0  0  0
   -0.7589   -7.2757   -0.7296 C   0  0  0  0  0  0  0  0  0  0  0  0
   -1.2602   -5.9231   -0.2894 C   0  0  0  0  0  0  0  0  0  0  0  0
   -2.4121   -2.1760   -2.0803 N   0  0  0  0  0  0  0  0  0  0  0  0
   -1.4432   -1.1899   -2.9921 S   0  0  0  0  0  0  0  0  0  0  0  0
   -2.2766   -0.1554   -3.4966 O   0  0  0  0  0  0  0  0  0  0  0  0
   -0.2858   -0.9235   -2.2119 O   0  0  0  0  0  0  0  0  0  0  0  0
   -0.9074   -2.1285   -4.3838 C   0  0  0  0  0  0  0  0  0  0  0  0
    0.2740   -2.8636   -4.3022 C   0  0  0  0  0  0  0  0  0  0  0  0
    0.7131   -3.6034   -5.3567 C   0  0  0  0  0  0  0  0  0  0  0  0
   -0.0272   -3.6192   -6.5513 C   0  0  0  0  0  0  0  0  0  0  0  0
    0.3980   -4.3658   -7.6635 C   0  0  0  0  0  0  0  0  0  0  0  0
   -0.3447   -4.3575   -8.8039 C   0  0  0  0  0  0  0  0  0  0  0  0
   -1.5233   -3.6180   -8.8872 C   0  0  0  0  0  0  0  0  0  0  0  0
   -1.9656   -2.8832   -7.8307 C   0  0  0  0  0  0  0  0  0  0  0  0
   -1.2255   -2.8674   -6.6361 C   0  0  0  0  0  0  0  0  0  0  0  0
   -1.6503   -2.1203   -5.5240 C   0  0  0  0  0  0  0  0  0  0  0  0
    1.0952    2.6490    0.0055 N   0  0  0  0  0  0  0  0  0  0  0  0
    2.5171    0.5695   -0.0274 H   0  0  0  0  0  0  0  0  0  0  0  0
    3.0270   -1.8367   -0.0324 H   0  0  0  0  0  0  0  0  0  0  0  0
    1.2012   -3.4857   -0.0232 H   0  0  0  0  0  0  0  0  0  0  0  0
   -1.6725   -0.3366    0.0187 H   0  0  0  0  0  0  0  0  0  0  0  0
   -1.1210   -3.9313    0.5113 H   0  0  0  0  0  0  0  0  0  0  0  0
   -2.3213   -2.6171    0.5284 H   0  0  0  0  0  0  0  0  0  0  0  0
   -3.6960   -7.1085    0.1607 H   0  0  0  0  0  0  0  0  0  0  0  0
   -4.5061   -6.4159   -1.2697 H   0  0  0  0  0  0  0  0  0  0  0  0
   -3.0686   -7.6195   -2.7787 H   0  0  0  0  0  0  0  0  0  0  0  0
   -3.5948   -8.7981   -1.5575 H   0  0  0  0  0  0  0  0  0  0  0  0
   -1.6737  -10.1349   -2.2555 H   0  0  0  0  0  0  0  0  0  0  0  0
    0.6648  -10.7000   -1.7631 H   0  0  0  0  0  0  0  0  0  0  0  0
    2.1081   -9.0654   -0.6106 H   0  0  0  0  0  0  0  0  0  0  0  0
    1.1948   -6.8818    0.0511 H   0  0  0  0  0  0  0  0  0  0  0  0
   -0.5579   -5.1539   -0.6104 H   0  0  0  0  0  0  0  0  0  0  0  0
   -1.3463   -5.9042    0.7971 H   0  0  0  0  0  0  0  0  0  0  0  0
   -3.3530   -1.9666   -1.9729 H   0  0  0  0  0  0  0  0  0  0  0  0
    0.8472   -2.8495   -3.3870 H   0  0  0  0  0  0  0  0  0  0  0  0
    1.6284   -4.1711   -5.2778 H   0  0  0  0  0  0  0  0  0  0  0  0
    1.3092   -4.9434   -7.6134 H   0  0  0  0  0  0  0  0  0  0  0  0
   -0.0160   -4.9322   -9.6569 H   0  0  0  0  0  0  0  0  0  0  0  0
   -2.0937   -3.6281   -9.8042 H   0  0  0  0  0  0  0  0  0  0  0  0
   -2.8805   -2.3148   -7.9099 H   0  0  0  0  0  0  0  0  0  0  0  0
   -2.5613   -1.5424   -5.5742 H   0  0  0  0  0  0  0  0  0  0  0  0
    2.0187    2.3526   -0.0046 H   0  0  0  0  0  0  0  0  0  0  0  0
    0.8902    3.5971    0.0116 H   0  0  0  0  0  0  0  0  0  0  0  0
   -1.2052    2.0629    0.0190 N   0  3  0  0  0  0  0  0  0  0  0  0
   -1.9294    1.3350    0.0185 H   0  0  0  0  0  0  0  0  0  0  0  0
  1 65  1  0  0  0  0
  2  3  1  0  0  0  0
  2 38  1  0  0  0  0
  2 65  2  0  0  0  0
  3  8  2  0  0  0  0
  3  4  1  0  0  0  0
  4  5  2  0  0  0  0
  4 39  1  0  0  0  0
  5  6  1  0  0  0  0
  5 40  1  0  0  0  0
  6  7  2  0  0  0  0
  6 41  1  0  0  0  0
  7  8  1  0  0  0  0
  7  9  1  0  0  0  0
  8 42  1  0  0  0  0
  9 10  1  0  0  0  0
  9 43  1  0  0  0  0
  9 44  1  0  0  0  0
 10 11  1  0  0  0  0
 10 12  1  0  0  0  0
 10 24  1  0  0  0  0
 12 13  2  0  0  0  0
 12 14  1  0  0  0  0
 14 23  1  0  0  0  0
 14 15  1  0  0  0  0
 15 16  1  0  0  0  0
 15 45  1  0  0  0  0
 15 46  1  0  0  0  0
 16 17  1  0  0  0  0
 16 47  1  0  0  0  0
 16 48  1  0  0  0  0
 17 22  2  0  0  0  0
 17 18  1  0  0  0  0
 18 19  2  0  0  0  0
 18 49  1  0  0  0  0
 19 20  1  0  0  0  0
 19 50  1  0  0  0  0
 20 21  2  0  0  0  0
 20 51  1  0  0  0  0
 21 22  1  0  0  0  0
 21 52  1  0  0  0  0
 22 23  1  0  0  0  0
 23 53  1  0  0  0  0
 23 54  1  0  0  0  0
 24 25  1  0  0  0  0
 24 55  1  0  0  0  0
 25 26  2  0  0  0  0
 25 27  2  0  0  0  0
 25 28  1  0  0  0  0
 28 37  2  0  0  0  0
 28 29  1  0  0  0  0
 29 30  2  0  0  0  0
 29 56  1  0  0  0  0
 30 31  1  0  0  0  0
 30 57  1  0  0  0  0
 31 36  2  0  0  0  0
 31 32  1  0  0  0  0
 32 33  2  0  0  0  0
 32 58  1  0  0  0  0
 33 34  1  0  0  0  0
 33 59  1  0  0  0  0
 34 35  2  0  0  0  0
 34 60  1  0  0  0  0
 35 36  1  0  0  0  0
 35 61  1  0  0  0  0
 36 37  1  0  0  0  0
 37 62  1  0  0  0  0
 38 63  1  0  0  0  0
 38 64  1  0  0  0  0
 65 66  1  0  0  0  0
M  CHG  1  65   1
M  END
$$$$
ZINC03834130
  -OEChem-08230709403D

 63 66  0     1  0  0  0  0  0999 V2000
    2.2471    7.4776    2.8601 H   0  0  0  0  0  0  0  0  0  0  0  0
    0.5681    6.4613    3.4011 C   0  0  0  0  0  0  0  0  0  0  0  0
   -0.0783    5.1307    3.3330 C   0  0  0  0  0  0  0  0  0  0  0  0
   -1.3356    4.9331    3.9038 C   0  0  0  0  0  0  0  0  0  0  0  0
   -1.9327    3.6911    3.8372 C   0  0  0  0  0  0  0  0  0  0  0  0
   -1.2868    2.6427    3.2062 C   0  0  0  0  0  0  0  0  0  0  0  0
   -0.0401    2.8328    2.6379 C   0  0  0  0  0  0  0  0  0  0  0  0
    0.5697    4.0692    2.7026 C   0  0  0  0  0  0  0  0  0  0  0  0
    0.6563    1.6857    1.9521 C   0  0  0  0  0  0  0  0  0  0  0  0
    0.2675    1.6642    0.4725 C   0  0  1  0  0  0  0  0  0  0  0  0
    0.5850    2.5936   -0.0002 H   0  0  0  0  0  0  0  0  0  0  0  0
    0.9407    0.4996   -0.2069 C   0  0  0  0  0  0  0  0  0  0  0  0
    0.3588   -0.5591   -0.3137 O   0  0  0  0  0  0  0  0  0  0  0  0
    2.1893    0.6347   -0.6959 N   0  0  0  0  0  0  0  0  0  0  0  0
    2.9460    1.8763   -0.4823 C   0  0  0  0  0  0  0  0  0  0  0  0
    4.2855    1.5198    0.1844 C   0  0  0  0  0  0  0  0  0  0  0  0
    4.9124    0.4304   -0.5772 N   0  0  0  0  0  0  0  0  0  0  0  0
    4.1536   -0.8091   -0.7955 C   0  0  0  0  0  0  0  0  0  0  0  0
    2.8162   -0.4547   -1.4576 C   0  0  0  0  0  0  0  0  0  0  0  0
    6.1611    0.5654   -1.0662 C   0  0  0  0  0  0  0  0  0  0  0  0
    6.6682   -0.3407   -1.6928 O   0  0  0  0  0  0  0  0  0  0  0  0
   -1.1860    1.5265    0.3515 N   0  0  0  0  0  0  0  0  0  0  0  0
   -2.1327    2.8727    0.1668 S   0  0  0  0  0  0  0  0  0  0  0  0
   -3.4721    2.4138    0.0459 O   0  0  0  0  0  0  0  0  0  0  0  0
   -1.7305    3.7931    1.1720 O   0  0  0  0  0  0  0  0  0  0  0  0
   -1.7079    3.5999   -1.3809 C   0  0  0  0  0  0  0  0  0  0  0  0
   -0.6981    4.5591   -1.4346 C   0  0  0  0  0  0  0  0  0  0  0  0
   -0.3420    5.1363   -2.6145 C   0  0  0  0  0  0  0  0  0  0  0  0
   -1.0082    4.7703   -3.7966 C   0  0  0  0  0  0  0  0  0  0  0  0
   -0.6727    5.3494   -5.0324 C   0  0  0  0  0  0  0  0  0  0  0  0
   -1.3394    4.9702   -6.1567 C   0  0  0  0  0  0  0  0  0  0  0  0
   -2.3529    4.0149   -6.1022 C   0  0  0  0  0  0  0  0  0  0  0  0
   -2.7049    3.4333   -4.9234 C   0  0  0  0  0  0  0  0  0  0  0  0
   -2.0386    3.7989   -3.7412 C   0  0  0  0  0  0  0  0  0  0  0  0
   -2.3745    3.2206   -2.5051 C   0  0  0  0  0  0  0  0  0  0  0  0
   -0.0725    7.5071    4.0292 N   0  0  0  0  0  0  0  0  0  0  0  0
   -1.8404    5.7505    4.3972 H   0  0  0  0  0  0  0  0  0  0  0  0
   -2.9061    3.5368    4.2788 H   0  0  0  0  0  0  0  0  0  0  0  0
   -1.7580    1.6722    3.1569 H   0  0  0  0  0  0  0  0  0  0  0  0
    1.5450    4.2151    2.2624 H   0  0  0  0  0  0  0  0  0  0  0  0
    0.3580    0.7475    2.4198 H   0  0  0  0  0  0  0  0  0  0  0  0
    1.7355    1.8097    2.0424 H   0  0  0  0  0  0  0  0  0  0  0  0
    3.1293    2.3625   -1.4405 H   0  0  0  0  0  0  0  0  0  0  0  0
    2.3788    2.5434    0.1666 H   0  0  0  0  0  0  0  0  0  0  0  0
    4.1114    1.1958    1.2105 H   0  0  0  0  0  0  0  0  0  0  0  0
    4.9400    2.3914    0.1823 H   0  0  0  0  0  0  0  0  0  0  0  0
    3.9700   -1.2989    0.1607 H   0  0  0  0  0  0  0  0  0  0  0  0
    4.7182   -1.4769   -1.4462 H   0  0  0  0  0  0  0  0  0  0  0  0
    2.1631   -1.3273   -1.4528 H   0  0  0  0  0  0  0  0  0  0  0  0
    2.9876   -0.1317   -2.4844 H   0  0  0  0  0  0  0  0  0  0  0  0
    6.7101    1.4805   -0.9000 H   0  0  0  0  0  0  0  0  0  0  0  0
   -1.5935    0.6466    0.3756 H   0  0  0  0  0  0  0  0  0  0  0  0
   -0.1878    4.8456   -0.5269 H   0  0  0  0  0  0  0  0  0  0  0  0
    0.4449    5.8755   -2.6415 H   0  0  0  0  0  0  0  0  0  0  0  0
    0.1104    6.0908   -5.0898 H   0  0  0  0  0  0  0  0  0  0  0  0
   -1.0795    5.4164   -7.1052 H   0  0  0  0  0  0  0  0  0  0  0  0
   -2.8667    3.7323   -7.0092 H   0  0  0  0  0  0  0  0  0  0  0  0
   -3.4924    2.6946   -4.8963 H   0  0  0  0  0  0  0  0  0  0  0  0
   -3.1578    2.4793   -2.4476 H   0  0  0  0  0  0  0  0  0  0  0  0
   -0.9468    7.3717    4.4267 H   0  0  0  0  0  0  0  0  0  0  0  0
    0.3510    8.3787    4.0737 H   0  0  0  0  0  0  0  0  0  0  0  0
    1.7611    6.5808    2.8394 N   0  3  0  0  0  0  0  0  0  0  0  0
    2.1971    5.7710    2.3831 H   0  0  0  0  0  0  0  0  0  0  0  0
  1 62  1  0  0  0  0
  2  3  1  0  0  0  0
  2 36  1  0  0  0  0
  2 62  2  0  0  0  0
  3  8  2  0  0  0  0
  3  4  1  0  0  0  0
  4  5  2  0  0  0  0
  4 37  1  0  0  0  0
  5  6  1  0  0  0  0
  5 38  1  0  0  0  0
  6  7  2  0  0  0  0
  6 39  1  0  0  0  0
  7  8  1  0  0  0  0
  7  9  1  0  0  0  0
  8 40  1  0  0  0  0
  9 10  1  0  0  0  0
  9 41  1  0  0  0  0
  9 42  1  0  0  0  0
 10 11  1  0  0  0  0
 10 12  1  0  0  0  0
 10 22  1  0  0  0  0
 12 13  2  0  0  0  0
 12 14  1  0  0  0  0
 14 19  1  0  0  0  0
 14 15  1  0  0  0  0
 15 16  1  0  0  0  0
 15 43  1  0  0  0  0
 15 44  1  0  0  0  0
 16 17  1  0  0  0  0
 16 45  1  0  0  0  0
 16 46  1  0  0  0  0
 17 18  1  0  0  0  0
 17 20  1  0  0  0  0
 18 19  1  0  0  0  0
 18 47  1  0  0  0  0
 18 48  1  0  0  0  0
 19 49  1  0  0  0  0
 19 50  1  0  0  0  0
 20 21  2  0  0  0  0
 20 51  1  0  0  0  0
 22 23  1  0  0  0  0
 22 52  1  0  0  0  0
 23 24  2  0  0  0  0
 23 25  2  0  0  0  0
 23 26  1  0  0  0  0
 26 35  2  0  0  0  0
 26 27  1  0  0  0  0
 27 28  2  0  0  0  0
 27 53  1  0  0  0  0
 28 29  1  0  0  0  0
 28 54  1  0  0  0  0
 29 34  2  0  0  0  0
 29 30  1  0  0  0  0
 30 31  2  0  0  0  0
 30 55  1  0  0  0  0
 31 32  1  0  0  0  0
 31 56  1  0  0  0  0
 32 33  2  0  0  0  0
 32 57  1  0  0  0  0
 33 34  1  0  0  0  0
 33 58  1  0  0  0  0
 34 35  1  0  0  0  0
 35 59  1  0  0  0  0
 36 60  1  0  0  0  0
 36 61  1  0  0  0  0
 62 63  1  0  0  0  0
M  CHG  1  62   1
M  END
$$$$
ZINC03834131
  -OEChem-08230709403D

 61 64  0     1  0  0  0  0  0999 V2000
    1.4557   -1.5749   -0.0203 H   0  0  0  0  0  0  0  0  0  0  0  0
   -0.0905   -0.2509    0.0015 C   0  0  0  0  0  0  0  0  0  0  0  0
   -0.4035    1.1965    0.0123 C   0  0  0  0  0  0  0  0  0  0  0  0
   -1.7306    1.6258    0.0214 C   0  0  0  0  0  0  0  0  0  0  0  0
   -2.0158    2.9756    0.0371 C   0  0  0  0  0  0  0  0  0  0  0  0
   -0.9888    3.9027    0.0319 C   0  0  0  0  0  0  0  0  0  0  0  0
    0.3291    3.4831    0.0171 C   0  0  0  0  0  0  0  0  0  0  0  0
    0.6272    2.1357    0.0075 C   0  0  0  0  0  0  0  0  0  0  0  0
    1.4418    4.4995    0.0119 C   0  0  0  0  0  0  0  0  0  0  0  0
    1.8050    4.8506   -1.4323 C   0  0  1  0  0  0  0  0  0  0  0  0
    0.9115    5.1818   -1.9614 H   0  0  0  0  0  0  0  0  0  0  0  0
    2.8305    5.9550   -1.4380 C   0  0  0  0  0  0  0  0  0  0  0  0
    3.9114    5.7731   -1.9463 O   0  0  0  0  0  0  0  0  0  0  0  0
    2.5430    7.1407   -0.8784 O   0  0  0  0  0  0  0  0  0  0  0  0
    3.5783    8.1578   -0.9207 C   0  0  0  0  0  0  0  0  0  0  0  0
    3.0787    9.4112   -0.2493 C   0  0  0  0  0  0  0  0  0  0  0  0
    2.4277   10.3797   -0.9904 C   0  0  0  0  0  0  0  0  0  0  0  0
    1.9652   11.5272   -0.3737 C   0  0  0  0  0  0  0  0  0  0  0  0
    2.1627   11.7108    0.9820 C   0  0  0  0  0  0  0  0  0  0  0  0
    2.8188   10.7449    1.7220 C   0  0  0  0  0  0  0  0  0  0  0  0
    3.2766    9.5951    1.1063 C   0  0  0  0  0  0  0  0  0  0  0  0
    2.3570    3.6683   -2.0984 N   0  0  0  0  0  0  0  0  0  0  0  0
    1.3712    2.6909   -3.0012 S   0  0  0  0  0  0  0  0  0  0  0  0
    2.1950    1.6613   -3.5310 O   0  0  0  0  0  0  0  0  0  0  0  0
    0.2285    2.4171   -2.2021 O   0  0  0  0  0  0  0  0  0  0  0  0
    0.8095    3.6425   -4.3738 C   0  0  0  0  0  0  0  0  0  0  0  0
   -0.3700    4.3768   -4.2632 C   0  0  0  0  0  0  0  0  0  0  0  0
   -0.8287    5.1264   -5.3023 C   0  0  0  0  0  0  0  0  0  0  0  0
   -0.1108    5.1535   -6.5102 C   0  0  0  0  0  0  0  0  0  0  0  0
   -0.5567    5.9104   -7.6072 C   0  0  0  0  0  0  0  0  0  0  0  0
    0.1646    5.9131   -8.7613 C   0  0  0  0  0  0  0  0  0  0  0  0
    1.3413    5.1745   -8.8737 C   0  0  0  0  0  0  0  0  0  0  0  0
    1.8032    4.4297   -7.8325 C   0  0  0  0  0  0  0  0  0  0  0  0
    1.0856    4.4026   -6.6245 C   0  0  0  0  0  0  0  0  0  0  0  0
    1.5310    3.6451   -5.5277 C   0  0  0  0  0  0  0  0  0  0  0  0
   -1.1111   -1.1764    0.0063 N   0  0  0  0  0  0  0  0  0  0  0  0
   -2.5331    0.9031    0.0206 H   0  0  0  0  0  0  0  0  0  0  0  0
   -3.0429    3.3092    0.0491 H   0  0  0  0  0  0  0  0  0  0  0  0
   -1.2171    4.9583    0.0396 H   0  0  0  0  0  0  0  0  0  0  0  0
    1.6565    1.8092   -0.0033 H   0  0  0  0  0  0  0  0  0  0  0  0
    1.1147    5.3990    0.5333 H   0  0  0  0  0  0  0  0  0  0  0  0
    2.3151    4.0848    0.5156 H   0  0  0  0  0  0  0  0  0  0  0  0
    4.4649    7.7957   -0.4003 H   0  0  0  0  0  0  0  0  0  0  0  0
    3.8301    8.3771   -1.9582 H   0  0  0  0  0  0  0  0  0  0  0  0
    2.2770   10.2381   -2.0504 H   0  0  0  0  0  0  0  0  0  0  0  0
    1.4530   12.2819   -0.9519 H   0  0  0  0  0  0  0  0  0  0  0  0
    1.8047   12.6090    1.4632 H   0  0  0  0  0  0  0  0  0  0  0  0
    2.9734   10.8885    2.7812 H   0  0  0  0  0  0  0  0  0  0  0  0
    3.7892    8.8405    1.6845 H   0  0  0  0  0  0  0  0  0  0  0  0
    3.2998    3.4581   -2.0105 H   0  0  0  0  0  0  0  0  0  0  0  0
   -0.9260    4.3539   -3.3376 H   0  0  0  0  0  0  0  0  0  0  0  0
   -1.7423    5.6933   -5.2010 H   0  0  0  0  0  0  0  0  0  0  0  0
   -1.4667    6.4875   -7.5346 H   0  0  0  0  0  0  0  0  0  0  0  0
   -0.1800    6.4958   -9.6027 H   0  0  0  0  0  0  0  0  0  0  0  0
    1.8945    5.1933   -9.8009 H   0  0  0  0  0  0  0  0  0  0  0  0
    2.7165    3.8622   -7.9342 H   0  0  0  0  0  0  0  0  0  0  0  0
    2.4408    3.0678   -5.6004 H   0  0  0  0  0  0  0  0  0  0  0  0
   -2.0347   -0.8800    0.0168 H   0  0  0  0  0  0  0  0  0  0  0  0
   -0.9061   -2.1245   -0.0007 H   0  0  0  0  0  0  0  0  0  0  0  0
    1.1892   -0.5903   -0.0124 N   0  3  0  0  0  0  0  0  0  0  0  0
    1.9133    0.1376   -0.0153 H   0  0  0  0  0  0  0  0  0  0  0  0
  1 60  1  0  0  0  0
  2  3  1  0  0  0  0
  2 36  1  0  0  0  0
  2 60  2  0  0  0  0
  3  8  2  0  0  0  0
  3  4  1  0  0  0  0
  4  5  2  0  0  0  0
  4 37  1  0  0  0  0
  5  6  1  0  0  0  0
  5 38  1  0  0  0  0
  6  7  2  0  0  0  0
  6 39  1  0  0  0  0
  7  8  1  0  0  0  0
  7  9  1  0  0  0  0
  8 40  1  0  0  0  0
  9 10  1  0  0  0  0
  9 41  1  0  0  0  0
  9 42  1  0  0  0  0
 10 11  1  0  0  0  0
 10 12  1  0  0  0  0
 10 22  1  0  0  0  0
 12 13  2  0  0  0  0
 12 14  1  0  0  0  0
 14 15  1  0  0  0  0
 15 16  1  0  0  0  0
 15 43  1  0  0  0  0
 15 44  1  0  0  0  0
 16 21  2  0  0  0  0
 16 17  1  0  0  0  0
 17 18  2  0  0  0  0
 17 45  1  0  0  0  0
 18 19  1  0  0  0  0
 18 46  1  0  0  0  0
 19 20  2  0  0  0  0
 19 47  1  0  0  0  0
 20 21  1  0  0  0  0
 20 48  1  0  0  0  0
 21 49  1  0  0  0  0
 22 23  1  0  0  0  0
 22 50  1  0  0  0  0
 23 24  2  0  0  0  0
 23 25  2  0  0  0  0
 23 26  1  0  0  0  0
 26 35  2  0  0  0  0
 26 27  1  0  0  0  0
 27 28  2  0  0  0  0
 27 51  1  0  0  0  0
 28 29  1  0  0  0  0
 28 52  1  0  0  0  0
 29 34  2  0  0  0  0
 29 30  1  0  0  0  0
 30 31  2  0  0  0  0
 30 53  1  0  0  0  0
 31 32  1  0  0  0  0
 31 54  1  0  0  0  0
 32 33  2  0  0  0  0
 32 55  1  0  0  0  0
 33 34  1  0  0  0  0
 33 56  1  0  0  0  0
 34 35  1  0  0  0  0
 35 57  1  0  0  0  0
 36 58  1  0  0  0  0
 36 59  1  0  0  0  0
 60 61  1  0  0  0  0
M  CHG  1  60   1
M  END
$$$$
ZINC03834132
  -OEChem-08230709403D

 60 63  0     1  0  0  0  0  0999 V2000
    4.2628    4.1052    5.2510 H   0  0  0  0  0  0  0  0  0  0  0  0
    2.7679    2.7634    5.5816 C   0  0  0  0  0  0  0  0  0  0  0  0
    1.9212    1.7518    4.9087 C   0  0  0  0  0  0  0  0  0  0  0  0
    0.9644    1.0439    5.6359 C   0  0  0  0  0  0  0  0  0  0  0  0
    0.1785    0.1027    5.0034 C   0  0  0  0  0  0  0  0  0  0  0  0
    0.3385   -0.1400    3.6507 C   0  0  0  0  0  0  0  0  0  0  0  0
    1.2853    0.5592    2.9242 C   0  0  0  0  0  0  0  0  0  0  0  0
    2.0808    1.4994    3.5467 C   0  0  0  0  0  0  0  0  0  0  0  0
    1.4528    0.2891    1.4510 C   0  0  0  0  0  0  0  0  0  0  0  0
    0.5303    1.2143    0.6548 C   0  0  1  0  0  0  0  0  0  0  0  0
    0.7318    2.2504    0.9272 H   0  0  0  0  0  0  0  0  0  0  0  0
    0.7795    1.0249   -0.8193 C   0  0  0  0  0  0  0  0  0  0  0  0
    0.1116    0.2335   -1.4504 O   0  0  0  0  0  0  0  0  0  0  0  0
    1.7446    1.7351   -1.4364 N   0  0  0  0  0  0  0  0  0  0  0  0
    2.6339    2.6262   -0.6744 C   0  0  0  0  0  0  0  0  0  0  0  0
    4.0854    2.2973   -1.0586 C   0  0  0  0  0  0  0  0  0  0  0  0
    4.2144    2.3379   -2.4818 O   0  0  0  0  0  0  0  0  0  0  0  0
    3.4181    1.3700   -3.1696 C   0  0  0  0  0  0  0  0  0  0  0  0
    1.9361    1.6471   -2.8927 C   0  0  0  0  0  0  0  0  0  0  0  0
   -0.8660    0.8920    0.9594 N   0  0  0  0  0  0  0  0  0  0  0  0
   -2.0018    2.0961    1.0087 S   0  0  0  0  0  0  0  0  0  0  0  0
   -3.2456    1.4697    1.2916 O   0  0  0  0  0  0  0  0  0  0  0  0
   -1.4652    3.1274    1.8256 O   0  0  0  0  0  0  0  0  0  0  0  0
   -2.1301    2.7582   -0.6191 C   0  0  0  0  0  0  0  0  0  0  0  0
   -1.3171    3.8273   -0.9913 C   0  0  0  0  0  0  0  0  0  0  0  0
   -1.3872    4.3586   -2.2422 C   0  0  0  0  0  0  0  0  0  0  0  0
   -2.3003    3.8313   -3.1714 C   0  0  0  0  0  0  0  0  0  0  0  0
   -2.4060    4.3580   -4.4701 C   0  0  0  0  0  0  0  0  0  0  0  0
   -3.3014    3.8216   -5.3433 C   0  0  0  0  0  0  0  0  0  0  0  0
   -4.1183    2.7560   -4.9695 C   0  0  0  0  0  0  0  0  0  0  0  0
   -4.0440    2.2206   -3.7205 C   0  0  0  0  0  0  0  0  0  0  0  0
   -3.1309    2.7478   -2.7913 C   0  0  0  0  0  0  0  0  0  0  0  0
   -3.0256    2.2218   -1.4922 C   0  0  0  0  0  0  0  0  0  0  0  0
    2.6113    3.0070    6.9286 N   0  0  0  0  0  0  0  0  0  0  0  0
    0.8391    1.2321    6.6920 H   0  0  0  0  0  0  0  0  0  0  0  0
   -0.5627   -0.4461    5.5654 H   0  0  0  0  0  0  0  0  0  0  0  0
   -0.2787   -0.8780    3.1601 H   0  0  0  0  0  0  0  0  0  0  0  0
    2.8229    2.0415    2.9792 H   0  0  0  0  0  0  0  0  0  0  0  0
    1.1959   -0.7490    1.2404 H   0  0  0  0  0  0  0  0  0  0  0  0
    2.4879    0.4727    1.1633 H   0  0  0  0  0  0  0  0  0  0  0  0
    2.4121    3.6645   -0.9211 H   0  0  0  0  0  0  0  0  0  0  0  0
    2.4896    2.4631    0.3936 H   0  0  0  0  0  0  0  0  0  0  0  0
    4.3436    1.3017   -0.6979 H   0  0  0  0  0  0  0  0  0  0  0  0
    4.7552    3.0318   -0.6112 H   0  0  0  0  0  0  0  0  0  0  0  0
    3.6739    0.3710   -2.8165 H   0  0  0  0  0  0  0  0  0  0  0  0
    3.6073    1.4378   -4.2408 H   0  0  0  0  0  0  0  0  0  0  0  0
    1.3296    0.8353   -3.2943 H   0  0  0  0  0  0  0  0  0  0  0  0
    1.6447    2.5883   -3.3588 H   0  0  0  0  0  0  0  0  0  0  0  0
   -1.1258   -0.0271    1.1283 H   0  0  0  0  0  0  0  0  0  0  0  0
   -0.6179    4.2375   -0.2776 H   0  0  0  0  0  0  0  0  0  0  0  0
   -0.7483    5.1845   -2.5178 H   0  0  0  0  0  0  0  0  0  0  0  0
   -1.7794    5.1836   -4.7738 H   0  0  0  0  0  0  0  0  0  0  0  0
   -3.3805    4.2279   -6.3408 H   0  0  0  0  0  0  0  0  0  0  0  0
   -4.8211    2.3492   -5.6815 H   0  0  0  0  0  0  0  0  0  0  0  0
   -4.6835    1.3953   -3.4447 H   0  0  0  0  0  0  0  0  0  0  0  0
   -3.6522    1.3963   -1.1884 H   0  0  0  0  0  0  0  0  0  0  0  0
    1.9465    2.5158    7.4362 H   0  0  0  0  0  0  0  0  0  0  0  0
    3.1658    3.6696    7.3693 H   0  0  0  0  0  0  0  0  0  0  0  0
    3.6562    3.3993    4.8335 N   0  3  0  0  0  0  0  0  0  0  0  0
    3.7344    3.1820    3.8330 H   0  0  0  0  0  0  0  0  0  0  0  0
  1 59  1  0  0  0  0
  2  3  1  0  0  0  0
  2 34  1  0  0  0  0
  2 59  2  0  0  0  0
  3  8  2  0  0  0  0
  3  4  1  0  0  0  0
  4  5  2  0  0  0  0
  4 35  1  0  0  0  0
  5  6  1  0  0  0  0
  5 36  1  0  0  0  0
  6  7  2  0  0  0  0
  6 37  1  0  0  0  0
  7  8  1  0  0  0  0
  7  9  1  0  0  0  0
  8 38  1  0  0  0  0
  9 10  1  0  0  0  0
  9 39  1  0  0  0  0
  9 40  1  0  0  0  0
 10 11  1  0  0  0  0
 10 12  1  0  0  0  0
 10 20  1  0  0  0  0
 12 13  2  0  0  0  0
 12 14  1  0  0  0  0
 14 19  1  0  0  0  0
 14 15  1  0  0  0  0
 15 16  1  0  0  0  0
 15 41  1  0  0  0  0
 15 42  1  0  0  0  0
 16 17  1  0  0  0  0
 16 43  1  0  0  0  0
 16 44  1  0  0  0  0
 17 18  1  0  0  0  0
 18 19  1  0  0  0  0
 18 45  1  0  0  0  0
 18 46  1  0  0  0  0
 19 47  1  0  0  0  0
 19 48  1  0  0  0  0
 20 21  1  0  0  0  0
 20 49  1  0  0  0  0
 21 22  2  0  0  0  0
 21 23  2  0  0  0  0
 21 24  1  0  0  0  0
 24 33  2  0  0  0  0
 24 25  1  0  0  0  0
 25 26  2  0  0  0  0
 25 50  1  0  0  0  0
 26 27  1  0  0  0  0
 26 51  1  0  0  0  0
 27 32  2  0  0  0  0
 27 28  1  0  0  0  0
 28 29  2  0  0  0  0
 28 52  1  0  0  0  0
 29 30  1  0  0  0  0
 29 53  1  0  0  0  0
 30 31  2  0  0  0  0
 30 54  1  0  0  0  0
 31 32  1  0  0  0  0
 31 55  1  0  0  0  0
 32 33  1  0  0  0  0
 33 56  1  0  0  0  0
 34 57  1  0  0  0  0
 34 58  1  0  0  0  0
 59 60  1  0  0  0  0
M  CHG  1  59   1
M  END
$$$$
ZINC03834133
  -OEChem-08230709403D

 67 70  0     1  0  0  0  0  0999 V2000
    2.2471    7.4776    2.8601 H   0  0  0  0  0  0  0  0  0  0  0  0
    0.5681    6.4613    3.4011 C   0  0  0  0  0  0  0  0  0  0  0  0
   -0.0783    5.1307    3.3330 C   0  0  0  0  0  0  0  0  0  0  0  0
   -1.3356    4.9331    3.9038 C   0  0  0  0  0  0  0  0  0  0  0  0
   -1.9327    3.6911    3.8372 C   0  0  0  0  0  0  0  0  0  0  0  0
   -1.2868    2.6427    3.2062 C   0  0  0  0  0  0  0  0  0  0  0  0
   -0.0401    2.8328    2.6379 C   0  0  0  0  0  0  0  0  0  0  0  0
    0.5697    4.0692    2.7026 C   0  0  0  0  0  0  0  0  0  0  0  0
    0.6563    1.6857    1.9521 C   0  0  0  0  0  0  0  0  0  0  0  0
    0.2675    1.6642    0.4725 C   0  0  1  0  0  0  0  0  0  0  0  0
    0.5850    2.5936   -0.0002 H   0  0  0  0  0  0  0  0  0  0  0  0
    0.9407    0.4996   -0.2069 C   0  0  0  0  0  0  0  0  0  0  0  0
    0.3588   -0.5591   -0.3137 O   0  0  0  0  0  0  0  0  0  0  0  0
    2.1893    0.6347   -0.6959 N   0  0  0  0  0  0  0  0  0  0  0  0
    2.9460    1.8763   -0.4823 C   0  0  0  0  0  0  0  0  0  0  0  0
    4.2855    1.5198    0.1844 C   0  0  0  0  0  0  0  0  0  0  0  0
    4.9124    0.4304   -0.5772 N   0  0  0  0  0  0  0  0  0  0  0  0
    4.1536   -0.8091   -0.7955 C   0  0  0  0  0  0  0  0  0  0  0  0
    2.8162   -0.4547   -1.4576 C   0  0  0  0  0  0  0  0  0  0  0  0
    6.1611    0.5654   -1.0662 C   0  0  0  0  0  0  0  0  0  0  0  0
    6.6682   -0.3407   -1.6928 O   0  0  0  0  0  0  0  0  0  0  0  0
    6.9272    1.8423   -0.8343 C   0  0  0  0  0  0  0  0  0  0  0  0
    8.2152    1.7428   -1.4451 O   0  0  0  0  0  0  0  0  0  0  0  0
   -1.1860    1.5265    0.3515 N   0  0  0  0  0  0  0  0  0  0  0  0
   -2.1327    2.8727    0.1668 S   0  0  0  0  0  0  0  0  0  0  0  0
   -3.4721    2.4138    0.0459 O   0  0  0  0  0  0  0  0  0  0  0  0
   -1.7305    3.7931    1.1720 O   0  0  0  0  0  0  0  0  0  0  0  0
   -1.7079    3.5999   -1.3809 C   0  0  0  0  0  0  0  0  0  0  0  0
   -0.6981    4.5591   -1.4346 C   0  0  0  0  0  0  0  0  0  0  0  0
   -0.3420    5.1363   -2.6145 C   0  0  0  0  0  0  0  0  0  0  0  0
   -1.0082    4.7703   -3.7966 C   0  0  0  0  0  0  0  0  0  0  0  0
   -0.6727    5.3494   -5.0324 C   0  0  0  0  0  0  0  0  0  0  0  0
   -1.3394    4.9702   -6.1567 C   0  0  0  0  0  0  0  0  0  0  0  0
   -2.3529    4.0149   -6.1022 C   0  0  0  0  0  0  0  0  0  0  0  0
   -2.7049    3.4333   -4.9234 C   0  0  0  0  0  0  0  0  0  0  0  0
   -2.0386    3.7989   -3.7412 C   0  0  0  0  0  0  0  0  0  0  0  0
   -2.3745    3.2206   -2.5051 C   0  0  0  0  0  0  0  0  0  0  0  0
   -0.0725    7.5071    4.0292 N   0  0  0  0  0  0  0  0  0  0  0  0
   -1.8404    5.7505    4.3972 H   0  0  0  0  0  0  0  0  0  0  0  0
   -2.9061    3.5368    4.2788 H   0  0  0  0  0  0  0  0  0  0  0  0
   -1.7580    1.6722    3.1569 H   0  0  0  0  0  0  0  0  0  0  0  0
    1.5450    4.2151    2.2624 H   0  0  0  0  0  0  0  0  0  0  0  0
    0.3580    0.7475    2.4198 H   0  0  0  0  0  0  0  0  0  0  0  0
    1.7355    1.8097    2.0424 H   0  0  0  0  0  0  0  0  0  0  0  0
    3.1293    2.3625   -1.4405 H   0  0  0  0  0  0  0  0  0  0  0  0
    2.3788    2.5434    0.1666 H   0  0  0  0  0  0  0  0  0  0  0  0
    4.1114    1.1958    1.2105 H   0  0  0  0  0  0  0  0  0  0  0  0
    4.9400    2.3914    0.1823 H   0  0  0  0  0  0  0  0  0  0  0  0
    3.9700   -1.2989    0.1607 H   0  0  0  0  0  0  0  0  0  0  0  0
    4.7182   -1.4769   -1.4462 H   0  0  0  0  0  0  0  0  0  0  0  0
    2.1631   -1.3273   -1.4528 H   0  0  0  0  0  0  0  0  0  0  0  0
    2.9876   -0.1317   -2.4844 H   0  0  0  0  0  0  0  0  0  0  0  0
    6.3812    2.6782   -1.2717 H   0  0  0  0  0  0  0  0  0  0  0  0
    7.0447    2.0061    0.2369 H   0  0  0  0  0  0  0  0  0  0  0  0
    8.7644    2.5310   -1.3356 H   0  0  0  0  0  0  0  0  0  0  0  0
   -1.5935    0.6466    0.3756 H   0  0  0  0  0  0  0  0  0  0  0  0
   -0.1878    4.8456   -0.5269 H   0  0  0  0  0  0  0  0  0  0  0  0
    0.4449    5.8755   -2.6415 H   0  0  0  0  0  0  0  0  0  0  0  0
    0.1104    6.0908   -5.0898 H   0  0  0  0  0  0  0  0  0  0  0  0
   -1.0795    5.4164   -7.1052 H   0  0  0  0  0  0  0  0  0  0  0  0
   -2.8667    3.7323   -7.0092 H   0  0  0  0  0  0  0  0  0  0  0  0
   -3.4924    2.6946   -4.8963 H   0  0  0  0  0  0  0  0  0  0  0  0
   -3.1578    2.4793   -2.4476 H   0  0  0  0  0  0  0  0  0  0  0  0
   -0.9468    7.3717    4.4267 H   0  0  0  0  0  0  0  0  0  0  0  0
    0.3510    8.3787    4.0737 H   0  0  0  0  0  0  0  0  0  0  0  0
    1.7611    6.5808    2.8394 N   0  3  0  0  0  0  0  0  0  0  0  0
    2.1971    5.7710    2.3831 H   0  0  0  0  0  0  0  0  0  0  0  0
  1 66  1  0  0  0  0
  2  3  1  0  0  0  0
  2 38  1  0  0  0  0
  2 66  2  0  0  0  0
  3  8  2  0  0  0  0
  3  4  1  0  0  0  0
  4  5  2  0  0  0  0
  4 39  1  0  0  0  0
  5  6  1  0  0  0  0
  5 40  1  0  0  0  0
  6  7  2  0  0  0  0
  6 41  1  0  0  0  0
  7  8  1  0  0  0  0
  7  9  1  0  0  0  0
  8 42  1  0  0  0  0
  9 10  1  0  0  0  0
  9 43  1  0  0  0  0
  9 44  1  0  0  0  0
 10 11  1  0  0  0  0
 10 12  1  0  0  0  0
 10 24  1  0  0  0  0
 12 13  2  0  0  0  0
 12 14  1  0  0  0  0
 14 19  1  0  0  0  0
 14 15  1  0  0  0  0
 15 16  1  0  0  0  0
 15 45  1  0  0  0  0
 15 46  1  0  0  0  0
 16 17  1  0  0  0  0
 16 47  1  0  0  0  0
 16 48  1  0  0  0  0
 17 18  1  0  0  0  0
 17 20  1  0  0  0  0
 18 19  1  0  0  0  0
 18 49  1  0  0  0  0
 18 50  1  0  0  0  0
 19 51  1  0  0  0  0
 19 52  1  0  0  0  0
 20 21  2  0  0  0  0
 20 22  1  0  0  0  0
 22 23  1  0  0  0  0
 22 53  1  0  0  0  0
 22 54  1  0  0  0  0
 23 55  1  0  0  0  0
 24 25  1  0  0  0  0
 24 56  1  0  0  0  0
 25 26  2  0  0  0  0
 25 27  2  0  0  0  0
 25 28  1  0  0  0  0
 28 37  2  0  0  0  0
 28 29  1  0  0  0  0
 29 30  2  0  0  0  0
 29 57  1  0  0  0  0
 30 31  1  0  0  0  0
 30 58  1  0  0  0  0
 31 36  2  0  0  0  0
 31 32  1  0  0  0  0
 32 33  2  0  0  0  0
 32 59  1  0  0  0  0
 33 34  1  0  0  0  0
 33 60  1  0  0  0  0
 34 35  2  0  0  0  0
 34 61  1  0  0  0  0
 35 36  1  0  0  0  0
 35 62  1  0  0  0  0
 36 37  1  0  0  0  0
 37 63  1  0  0  0  0
 38 64  1  0  0  0  0
 38 65  1  0  0  0  0
 66 67  1  0  0  0  0
M  CHG  1  66   1
M  END
$$$$
ZINC03834134
  -OEChem-08230709403D

 68 70  0     1  0  0  0  0  0999 V2000
    0.3729   -2.0197   -2.2352 H   0  0  0  0  0  0  0  0  0  0  0  0
   -0.5864   -0.5806   -1.1613 C   0  0  0  0  0  0  0  0  0  0  0  0
   -0.4230    0.7827   -0.6067 C   0  0  0  0  0  0  0  0  0  0  0  0
   -1.4629    1.3773    0.1078 C   0  0  0  0  0  0  0  0  0  0  0  0
   -1.3025    2.6454    0.6270 C   0  0  0  0  0  0  0  0  0  0  0  0
   -0.1176    3.3319    0.4300 C   0  0  0  0  0  0  0  0  0  0  0  0
    0.9152    2.7498   -0.2826 C   0  0  0  0  0  0  0  0  0  0  0  0
    0.7691    1.4794   -0.8015 C   0  0  0  0  0  0  0  0  0  0  0  0
    2.2028    3.5042   -0.4923 C   0  0  0  0  0  0  0  0  0  0  0  0
    2.1121    4.3189   -1.7842 C   0  0  1  0  0  0  0  0  0  0  0  0
    1.2175    4.9412   -1.7592 H   0  0  0  0  0  0  0  0  0  0  0  0
    3.3308    5.1959   -1.9117 C   0  0  0  0  0  0  0  0  0  0  0  0
    4.1767    4.9417   -2.7428 O   0  0  0  0  0  0  0  0  0  0  0  0
    3.4809    6.2630   -1.1021 N   0  0  0  0  0  0  0  0  0  0  0  0
    2.4294    6.6291   -0.1435 C   0  0  0  0  0  0  0  0  0  0  0  0
    2.0520    8.0942   -0.3544 C   0  0  0  0  0  0  0  0  0  0  0  0
    3.3109    8.9604   -0.2683 C   0  0  0  0  0  0  0  0  0  0  0  0
    4.2914    8.5491   -1.3690 C   0  0  0  0  0  0  0  0  0  0  0  0
    4.6966    7.0857   -1.1657 C   0  0  0  0  0  0  0  0  0  0  0  0
    2.9307   10.4315   -0.4480 C   0  0  0  0  0  0  0  0  0  0  0  0
    2.0425    3.4098   -2.9309 N   0  0  0  0  0  0  0  0  0  0  0  0
    1.1158    3.8044   -4.2453 S   0  0  0  0  0  0  0  0  0  0  0  0
    1.2629    2.7435   -5.1792 O   0  0  0  0  0  0  0  0  0  0  0  0
   -0.1510    4.2071   -3.7431 O   0  0  0  0  0  0  0  0  0  0  0  0
    1.8407    5.2301   -4.9847 C   0  0  0  0  0  0  0  0  0  0  0  0
    1.3188    6.4837   -4.7262 C   0  0  0  0  0  0  0  0  0  0  0  0
    1.8902    7.6026   -5.3027 C   0  0  0  0  0  0  0  0  0  0  0  0
    2.9778    7.4671   -6.1451 C   0  0  0  0  0  0  0  0  0  0  0  0
    3.4965    6.2129   -6.4077 C   0  0  0  0  0  0  0  0  0  0  0  0
    2.9278    5.0944   -5.8277 C   0  0  0  0  0  0  0  0  0  0  0  0
    3.4932    3.7271   -6.1141 C   0  0  0  0  0  0  0  0  0  0  0  0
    3.5985    8.6865   -6.7766 C   0  0  0  0  0  0  0  0  0  0  0  0
    0.1298    6.6311   -3.8120 C   0  0  0  0  0  0  0  0  0  0  0  0
   -1.7655   -1.2666   -0.9671 N   0  0  0  0  0  0  0  0  0  0  0  0
   -2.3901    0.8442    0.2582 H   0  0  0  0  0  0  0  0  0  0  0  0
   -2.1054    3.1050    1.1846 H   0  0  0  0  0  0  0  0  0  0  0  0
    0.0016    4.3262    0.8345 H   0  0  0  0  0  0  0  0  0  0  0  0
    1.5764    1.0256   -1.3572 H   0  0  0  0  0  0  0  0  0  0  0  0
    2.3718    4.1757    0.3495 H   0  0  0  0  0  0  0  0  0  0  0  0
    3.0298    2.7980   -0.5654 H   0  0  0  0  0  0  0  0  0  0  0  0
    1.5534    6.0008   -0.3044 H   0  0  0  0  0  0  0  0  0  0  0  0
    2.7980    6.4923    0.8731 H   0  0  0  0  0  0  0  0  0  0  0  0
    1.3445    8.4033    0.4149 H   0  0  0  0  0  0  0  0  0  0  0  0
    1.5960    8.2120   -1.3373 H   0  0  0  0  0  0  0  0  0  0  0  0
    3.7800    8.8230    0.7059 H   0  0  0  0  0  0  0  0  0  0  0  0
    5.1776    9.1818   -1.3217 H   0  0  0  0  0  0  0  0  0  0  0  0
    3.8142    8.6625   -2.3423 H   0  0  0  0  0  0  0  0  0  0  0  0
    5.2538    6.9869   -0.2341 H   0  0  0  0  0  0  0  0  0  0  0  0
    5.3159    6.7587   -2.0008 H   0  0  0  0  0  0  0  0  0  0  0  0
    2.4619   10.5692   -1.4224 H   0  0  0  0  0  0  0  0  0  0  0  0
    2.2323   10.7246    0.3359 H   0  0  0  0  0  0  0  0  0  0  0  0
    3.8270   11.0486   -0.3855 H   0  0  0  0  0  0  0  0  0  0  0  0
    2.5392    2.5766   -2.9202 H   0  0  0  0  0  0  0  0  0  0  0  0
    1.4852    8.5826   -5.0972 H   0  0  0  0  0  0  0  0  0  0  0  0
    4.3463    6.1070   -7.0658 H   0  0  0  0  0  0  0  0  0  0  0  0
    2.9951    3.3033   -6.9861 H   0  0  0  0  0  0  0  0  0  0  0  0
    4.5621    3.8100   -6.3108 H   0  0  0  0  0  0  0  0  0  0  0  0
    3.3313    3.0793   -5.2526 H   0  0  0  0  0  0  0  0  0  0  0  0
    3.1145    8.8868   -7.7325 H   0  0  0  0  0  0  0  0  0  0  0  0
    3.4678    9.5440   -6.1164 H   0  0  0  0  0  0  0  0  0  0  0  0
    4.6621    8.5108   -6.9376 H   0  0  0  0  0  0  0  0  0  0  0  0
    0.4445    6.4803   -2.7794 H   0  0  0  0  0  0  0  0  0  0  0  0
   -0.2909    7.6307   -3.9214 H   0  0  0  0  0  0  0  0  0  0  0  0
   -0.6243    5.8888   -4.0742 H   0  0  0  0  0  0  0  0  0  0  0  0
   -2.4884   -0.8566   -0.4671 H   0  0  0  0  0  0  0  0  0  0  0  0
   -1.8726   -2.1596   -1.3304 H   0  0  0  0  0  0  0  0  0  0  0  0
    0.4370   -1.0840   -1.8339 N   0  3  0  0  0  0  0  0  0  0  0  0
    1.2951   -0.5326   -1.9515 H   0  0  0  0  0  0  0  0  0  0  0  0
  1 67  1  0  0  0  0
  2  3  1  0  0  0  0
  2 34  1  0  0  0  0
  2 67  2  0  0  0  0
  3  8  2  0  0  0  0
  3  4  1  0  0  0  0
  4  5  2  0  0  0  0
  4 35  1  0  0  0  0
  5  6  1  0  0  0  0
  5 36  1  0  0  0  0
  6  7  2  0  0  0  0
  6 37  1  0  0  0  0
  7  8  1  0  0  0  0
  7  9  1  0  0  0  0
  8 38  1  0  0  0  0
  9 10  1  0  0  0  0
  9 39  1  0  0  0  0
  9 40  1  0  0  0  0
 10 11  1  0  0  0  0
 10 12  1  0  0  0  0
 10 21  1  0  0  0  0
 12 13  2  0  0  0  0
 12 14  1  0  0  0  0
 14 19  1  0  0  0  0
 14 15  1  0  0  0  0
 15 16  1  0  0  0  0
 15 41  1  0  0  0  0
 15 42  1  0  0  0  0
 16 17  1  0  0  0  0
 16 43  1  0  0  0  0
 16 44  1  0  0  0  0
 17 18  1  0  0  0  0
 17 20  1  0  0  0  0
 17 45  1  0  0  0  0
 18 19  1  0  0  0  0
 18 46  1  0  0  0  0
 18 47  1  0  0  0  0
 19 48  1  0  0  0  0
 19 49  1  0  0  0  0
 20 50  1  0  0  0  0
 20 51  1  0  0  0  0
 20 52  1  0  0  0  0
 21 22  1  0  0  0  0
 21 53  1  0  0  0  0
 22 23  2  0  0  0  0
 22 24  2  0  0  0  0
 22 25  1  0  0  0  0
 25 30  2  0  0  0  0
 25 26  1  0  0  0  0
 26 27  2  0  0  0  0
 26 33  1  0  0  0  0
 27 28  1  0  0  0  0
 27 54  1  0  0  0  0
 28 29  2  0  0  0  0
 28 32  1  0  0  0  0
 29 30  1  0  0  0  0
 29 55  1  0  0  0  0
 30 31  1  0  0  0  0
 31 56  1  0  0  0  0
 31 57  1  0  0  0  0
 31 58  1  0  0  0  0
 32 59  1  0  0  0  0
 32 60  1  0  0  0  0
 32 61  1  0  0  0  0
 33 62  1  0  0  0  0
 33 63  1  0  0  0  0
 33 64  1  0  0  0  0
 34 65  1  0  0  0  0
 34 66  1  0  0  0  0
 67 68  1  0  0  0  0
M  CHG  1  67   1
M  END
$$$$
ZINC03834135
  -OEChem-08230709403D

 62 65  0     1  0  0  0  0  0999 V2000
    6.5095    6.1514    2.1422 H   0  0  0  0  0  0  0  0  0  0  0  0
    7.7996    4.8659    1.2323 C   0  0  0  0  0  0  0  0  0  0  0  0
    7.8822    3.5308    0.5972 C   0  0  0  0  0  0  0  0  0  0  0  0
    9.0965    3.0721    0.0867 C   0  0  0  0  0  0  0  0  0  0  0  0
    9.1672    1.8273   -0.5039 C   0  0  0  0  0  0  0  0  0  0  0  0
    8.0365    1.0346   -0.5911 C   0  0  0  0  0  0  0  0  0  0  0  0
    6.8296    1.4837   -0.0864 C   0  0  0  0  0  0  0  0  0  0  0  0
    6.7451    2.7293    0.5021 C   0  0  0  0  0  0  0  0  0  0  0  0
    5.6029    0.6140   -0.1849 C   0  0  0  0  0  0  0  0  0  0  0  0
    5.5030   -0.2698    1.0602 C   0  0  1  0  0  0  0  0  0  0  0  0
    5.5268    0.3558    1.9525 H   0  0  0  0  0  0  0  0  0  0  0  0
    4.2109   -1.0444    1.0240 C   0  0  0  0  0  0  0  0  0  0  0  0
    4.2289   -2.2468    0.8661 O   0  0  0  0  0  0  0  0  0  0  0  0
    3.0352   -0.4011    1.1672 N   0  0  0  0  0  0  0  0  0  0  0  0
    2.9998    1.0446    1.4265 C   0  0  0  0  0  0  0  0  0  0  0  0
    2.1549    1.3004    2.6785 C   0  0  0  0  0  0  0  0  0  0  0  0
    0.7766    0.6601    2.4985 C   0  0  0  0  0  0  0  0  0  0  0  0
    0.9338   -0.8519    2.3225 C   0  0  0  0  0  0  0  0  0  0  0  0
    1.7648   -1.1322    1.0664 C   0  0  0  0  0  0  0  0  0  0  0  0
    6.6316   -1.2034    1.0881 N   0  0  0  0  0  0  0  0  0  0  0  0
    7.3110   -1.6381    2.5344 S   0  0  0  0  0  0  0  0  0  0  0  0
    8.3490   -2.5611    2.2344 O   0  0  0  0  0  0  0  0  0  0  0  0
    7.5462   -0.4337    3.2509 O   0  0  0  0  0  0  0  0  0  0  0  0
    6.0888   -2.5304    3.4370 C   0  0  0  0  0  0  0  0  0  0  0  0
    5.2255   -1.8427    4.2880 C   0  0  0  0  0  0  0  0  0  0  0  0
    4.2669   -2.5010    4.9951 C   0  0  0  0  0  0  0  0  0  0  0  0
    4.1508   -3.8965    4.8768 C   0  0  0  0  0  0  0  0  0  0  0  0
    3.1779   -4.6115    5.5962 C   0  0  0  0  0  0  0  0  0  0  0  0
    3.0948   -5.9626    5.4562 C   0  0  0  0  0  0  0  0  0  0  0  0
    3.9615   -6.6511    4.6094 C   0  0  0  0  0  0  0  0  0  0  0  0
    4.9161   -5.9921    3.8975 C   0  0  0  0  0  0  0  0  0  0  0  0
    5.0322   -4.5965    4.0156 C   0  0  0  0  0  0  0  0  0  0  0  0
    6.0056   -3.8816    3.2969 C   0  0  0  0  0  0  0  0  0  0  0  0
    8.9237    5.6578    1.3201 N   0  0  0  0  0  0  0  0  0  0  0  0
    9.9796    3.6903    0.1535 H   0  0  0  0  0  0  0  0  0  0  0  0
   10.1068    1.4710   -0.8995 H   0  0  0  0  0  0  0  0  0  0  0  0
    8.0966    0.0610   -1.0546 H   0  0  0  0  0  0  0  0  0  0  0  0
    5.8012    3.0807    0.8919 H   0  0  0  0  0  0  0  0  0  0  0  0
    5.6738   -0.0152   -1.0721 H   0  0  0  0  0  0  0  0  0  0  0  0
    4.7158    1.2434   -0.2557 H   0  0  0  0  0  0  0  0  0  0  0  0
    2.5547    1.5579    0.5742 H   0  0  0  0  0  0  0  0  0  0  0  0
    4.0132    1.4119    1.5883 H   0  0  0  0  0  0  0  0  0  0  0  0
    2.0406    2.3742    2.8272 H   0  0  0  0  0  0  0  0  0  0  0  0
    2.6486    0.8631    3.5463 H   0  0  0  0  0  0  0  0  0  0  0  0
    0.1649    0.8617    3.3779 H   0  0  0  0  0  0  0  0  0  0  0  0
    0.2934    1.0802    1.6163 H   0  0  0  0  0  0  0  0  0  0  0  0
    1.4390   -1.2691    3.1936 H   0  0  0  0  0  0  0  0  0  0  0  0
   -0.0498   -1.3102    2.2178 H   0  0  0  0  0  0  0  0  0  0  0  0
    1.2189   -0.7964    0.1848 H   0  0  0  0  0  0  0  0  0  0  0  0
    1.9634   -2.2013    0.9906 H   0  0  0  0  0  0  0  0  0  0  0  0
    6.9809   -1.5671    0.2595 H   0  0  0  0  0  0  0  0  0  0  0  0
    5.3156   -0.7708    4.3843 H   0  0  0  0  0  0  0  0  0  0  0  0
    3.6025   -1.9544    5.6479 H   0  0  0  0  0  0  0  0  0  0  0  0
    2.4995   -4.0912    6.2560 H   0  0  0  0  0  0  0  0  0  0  0  0
    2.3460   -6.5096    6.0099 H   0  0  0  0  0  0  0  0  0  0  0  0
    3.8747   -7.7235    4.5170 H   0  0  0  0  0  0  0  0  0  0  0  0
    5.5811   -6.5388    3.2454 H   0  0  0  0  0  0  0  0  0  0  0  0
    6.6843   -4.4017    2.6372 H   0  0  0  0  0  0  0  0  0  0  0  0
    9.7692    5.3407    0.9658 H   0  0  0  0  0  0  0  0  0  0  0  0
    8.8696    6.5324    1.7362 H   0  0  0  0  0  0  0  0  0  0  0  0
    6.6172    5.2403    1.6960 N   0  3  0  0  0  0  0  0  0  0  0  0
    5.8088    4.6137    1.6066 H   0  0  0  0  0  0  0  0  0  0  0  0
  1 61  1  0  0  0  0
  2  3  1  0  0  0  0
  2 34  1  0  0  0  0
  2 61  2  0  0  0  0
  3  8  2  0  0  0  0
  3  4  1  0  0  0  0
  4  5  2  0  0  0  0
  4 35  1  0  0  0  0
  5  6  1  0  0  0  0
  5 36  1  0  0  0  0
  6  7  2  0  0  0  0
  6 37  1  0  0  0  0
  7  8  1  0  0  0  0
  7  9  1  0  0  0  0
  8 38  1  0  0  0  0
  9 10  1  0  0  0  0
  9 39  1  0  0  0  0
  9 40  1  0  0  0  0
 10 11  1  0  0  0  0
 10 12  1  0  0  0  0
 10 20  1  0  0  0  0
 12 13  2  0  0  0  0
 12 14  1  0  0  0  0
 14 19  1  0  0  0  0
 14 15  1  0  0  0  0
 15 16  1  0  0  0  0
 15 41  1  0  0  0  0
 15 42  1  0  0  0  0
 16 17  1  0  0  0  0
 16 43  1  0  0  0  0
 16 44  1  0  0  0  0
 17 18  1  0  0  0  0
 17 45  1  0  0  0  0
 17 46  1  0  0  0  0
 18 19  1  0  0  0  0
 18 47  1  0  0  0  0
 18 48  1  0  0  0  0
 19 49  1  0  0  0  0
 19 50  1  0  0  0  0
 20 21  1  0  0  0  0
 20 51  1  0  0  0  0
 21 22  2  0  0  0  0
 21 23  2  0  0  0  0
 21 24  1  0  0  0  0
 24 33  2  0  0  0  0
 24 25  1  0  0  0  0
 25 26  2  0  0  0  0
 25 52  1  0  0  0  0
 26 27  1  0  0  0  0
 26 53  1  0  0  0  0
 27 32  2  0  0  0  0
 27 28  1  0  0  0  0
 28 29  2  0  0  0  0
 28 54  1  0  0  0  0
 29 30  1  0  0  0  0
 29 55  1  0  0  0  0
 30 31  2  0  0  0  0
 30 56  1  0  0  0  0
 31 32  1  0  0  0  0
 31 57  1  0  0  0  0
 32 33  1  0  0  0  0
 33 58  1  0  0  0  0
 34 59  1  0  0  0  0
 34 60  1  0  0  0  0
 61 62  1  0  0  0  0
M  CHG  1  61   1
M  END
$$$$
ZINC03834136
  -OEChem-08230709403D

 72 74  0     1  0  0  0  0  0999 V2000
   -3.0588    2.4660   -6.1220 H   0  0  0  0  0  0  0  0  0  0  0  0
   -2.9723    0.4840   -6.5789 C   0  0  0  0  0  0  0  0  0  0  0  0
   -2.0664   -0.6874   -6.5800 C   0  0  0  0  0  0  0  0  0  0  0  0
   -2.5246   -1.9265   -7.0273 C   0  0  0  0  0  0  0  0  0  0  0  0
   -1.6756   -3.0141   -7.0264 C   0  0  0  0  0  0  0  0  0  0  0  0
   -0.3705   -2.8761   -6.5884 C   0  0  0  0  0  0  0  0  0  0  0  0
    0.0881   -1.6513   -6.1383 C   0  0  0  0  0  0  0  0  0  0  0  0
   -0.7516   -0.5560   -6.1344 C   0  0  0  0  0  0  0  0  0  0  0  0
    1.5092   -1.5109   -5.6572 C   0  0  0  0  0  0  0  0  0  0  0  0
    1.5688   -1.7913   -4.1542 C   0  0  1  0  0  0  0  0  0  0  0  0
    1.2532   -2.8170   -3.9632 H   0  0  0  0  0  0  0  0  0  0  0  0
    2.9808   -1.6005   -3.6631 C   0  0  0  0  0  0  0  0  0  0  0  0
    3.2640   -0.6296   -2.9939 O   0  0  0  0  0  0  0  0  0  0  0  0
    3.9287   -2.5088   -3.9677 N   0  0  0  0  0  0  0  0  0  0  0  0
    3.6303   -3.6278   -4.8720 C   0  0  0  0  0  0  0  0  0  0  0  0
    4.0053   -4.9384   -4.1826 C   0  0  0  0  0  0  0  0  0  0  0  0
    5.4640   -4.8719   -3.7244 C   0  0  0  0  0  0  0  0  0  0  0  0
    5.6333   -3.7299   -2.7198 C   0  0  0  0  0  0  0  0  0  0  0  0
    5.2784   -2.4025   -3.3970 C   0  0  0  0  0  0  0  0  0  0  0  0
    5.8509   -6.1955   -3.0615 C   0  0  0  0  0  0  0  0  0  0  0  0
    0.6775   -0.8668   -3.4493 N   0  0  0  0  0  0  0  0  0  0  0  0
   -0.8672   -1.3305   -3.0736 S   0  0  0  0  0  0  0  0  0  0  0  0
   -1.4282   -1.8737   -4.2608 O   0  0  0  0  0  0  0  0  0  0  0  0
   -1.4606   -0.2416   -2.3796 O   0  0  0  0  0  0  0  0  0  0  0  0
   -0.7471   -2.6572   -1.9205 C   0  0  0  0  0  0  0  0  0  0  0  0
   -0.5460   -2.3895   -0.5787 C   0  0  0  0  0  0  0  0  0  0  0  0
   -0.4575   -3.4276    0.3281 C   0  0  0  0  0  0  0  0  0  0  0  0
   -0.5650   -4.7401   -0.1090 C   0  0  0  0  0  0  0  0  0  0  0  0
   -0.7611   -5.0062   -1.4561 C   0  0  0  0  0  0  0  0  0  0  0  0
   -0.8488   -3.9642   -2.3592 C   0  0  0  0  0  0  0  0  0  0  0  0
   -1.0623   -4.2525   -3.8229 C   0  0  0  0  0  0  0  0  0  0  0  0
   -0.8787   -6.4305   -1.9342 C   0  0  0  0  0  0  0  0  0  0  0  0
   -0.4787   -5.7632    0.7814 O   0  0  0  0  0  0  0  0  0  0  0  0
   -0.2768   -5.4148    2.1525 C   0  0  0  0  0  0  0  0  0  0  0  0
   -0.4293   -0.9638   -0.1047 C   0  0  0  0  0  0  0  0  0  0  0  0
   -4.2709    0.3510   -7.0198 N   0  0  0  0  0  0  0  0  0  0  0  0
   -3.5417   -2.0343   -7.3739 H   0  0  0  0  0  0  0  0  0  0  0  0
   -2.0295   -3.9742   -7.3722 H   0  0  0  0  0  0  0  0  0  0  0  0
    0.2916   -3.7293   -6.5937 H   0  0  0  0  0  0  0  0  0  0  0  0
   -0.3912    0.4008   -5.7867 H   0  0  0  0  0  0  0  0  0  0  0  0
    1.8604   -0.4976   -5.8519 H   0  0  0  0  0  0  0  0  0  0  0  0
    2.1436   -2.2230   -6.1850 H   0  0  0  0  0  0  0  0  0  0  0  0
    2.5663   -3.6325   -5.1089 H   0  0  0  0  0  0  0  0  0  0  0  0
    4.2103   -3.5214   -5.7888 H   0  0  0  0  0  0  0  0  0  0  0  0
    3.8805   -5.7665   -4.8803 H   0  0  0  0  0  0  0  0  0  0  0  0
    3.3589   -5.0897   -3.3181 H   0  0  0  0  0  0  0  0  0  0  0  0
    6.1075   -4.6957   -4.5864 H   0  0  0  0  0  0  0  0  0  0  0  0
    6.6673   -3.6980   -2.3762 H   0  0  0  0  0  0  0  0  0  0  0  0
    4.9716   -3.8927   -1.8690 H   0  0  0  0  0  0  0  0  0  0  0  0
    5.9955   -2.1941   -4.1910 H   0  0  0  0  0  0  0  0  0  0  0  0
    5.3015   -1.5990   -2.6609 H   0  0  0  0  0  0  0  0  0  0  0  0
    5.2078   -6.3716   -2.1993 H   0  0  0  0  0  0  0  0  0  0  0  0
    5.7303   -7.0090   -3.7770 H   0  0  0  0  0  0  0  0  0  0  0  0
    6.8901   -6.1488   -2.7362 H   0  0  0  0  0  0  0  0  0  0  0  0
    0.9922    0.0170   -3.2026 H   0  0  0  0  0  0  0  0  0  0  0  0
   -0.3045   -3.2179    1.3765 H   0  0  0  0  0  0  0  0  0  0  0  0
   -2.1311   -4.2854   -4.0347 H   0  0  0  0  0  0  0  0  0  0  0  0
   -0.5978   -3.4674   -4.4194 H   0  0  0  0  0  0  0  0  0  0  0  0
   -0.6127   -5.2133   -4.0733 H   0  0  0  0  0  0  0  0  0  0  0  0
   -1.9244   -6.7371   -1.9086 H   0  0  0  0  0  0  0  0  0  0  0  0
   -0.5036   -6.5033   -2.9551 H   0  0  0  0  0  0  0  0  0  0  0  0
   -0.2932   -7.0813   -1.2847 H   0  0  0  0  0  0  0  0  0  0  0  0
   -1.1062   -4.7966    2.4962 H   0  0  0  0  0  0  0  0  0  0  0  0
   -0.2263   -6.3221    2.7543 H   0  0  0  0  0  0  0  0  0  0  0  0
    0.6559   -4.8598    2.2528 H   0  0  0  0  0  0  0  0  0  0  0  0
    0.5874   -0.6076   -0.2710 H   0  0  0  0  0  0  0  0  0  0  0  0
   -1.1288   -0.3382   -0.6592 H   0  0  0  0  0  0  0  0  0  0  0  0
   -0.6621   -0.9143    0.9589 H   0  0  0  0  0  0  0  0  0  0  0  0
   -4.5917   -0.5099   -7.3309 H   0  0  0  0  0  0  0  0  0  0  0  0
   -4.8643    1.1183   -7.0190 H   0  0  0  0  0  0  0  0  0  0  0  0
   -2.4740    1.6304   -6.1422 N   0  3  0  0  0  0  0  0  0  0  0  0
   -1.4990    1.6783   -5.8239 H   0  0  0  0  0  0  0  0  0  0  0  0
  1 71  1  0  0  0  0
  2  3  1  0  0  0  0
  2 36  1  0  0  0  0
  2 71  2  0  0  0  0
  3  8  2  0  0  0  0
  3  4  1  0  0  0  0
  4  5  2  0  0  0  0
  4 37  1  0  0  0  0
  5  6  1  0  0  0  0
  5 38  1  0  0  0  0
  6  7  2  0  0  0  0
  6 39  1  0  0  0  0
  7  8  1  0  0  0  0
  7  9  1  0  0  0  0
  8 40  1  0  0  0  0
  9 10  1  0  0  0  0
  9 41  1  0  0  0  0
  9 42  1  0  0  0  0
 10 11  1  0  0  0  0
 10 12  1  0  0  0  0
 10 21  1  0  0  0  0
 12 13  2  0  0  0  0
 12 14  1  0  0  0  0
 14 19  1  0  0  0  0
 14 15  1  0  0  0  0
 15 16  1  0  0  0  0
 15 43  1  0  0  0  0
 15 44  1  0  0  0  0
 16 17  1  0  0  0  0
 16 45  1  0  0  0  0
 16 46  1  0  0  0  0
 17 18  1  0  0  0  0
 17 20  1  0  0  0  0
 17 47  1  0  0  0  0
 18 19  1  0  0  0  0
 18 48  1  0  0  0  0
 18 49  1  0  0  0  0
 19 50  1  0  0  0  0
 19 51  1  0  0  0  0
 20 52  1  0  0  0  0
 20 53  1  0  0  0  0
 20 54  1  0  0  0  0
 21 22  1  0  0  0  0
 21 55  1  0  0  0  0
 22 23  2  0  0  0  0
 22 24  2  0  0  0  0
 22 25  1  0  0  0  0
 25 30  2  0  0  0  0
 25 26  1  0  0  0  0
 26 27  2  0  0  0  0
 26 35  1  0  0  0  0
 27 28  1  0  0  0  0
 27 56  1  0  0  0  0
 28 29  2  0  0  0  0
 28 33  1  0  0  0  0
 29 30  1  0  0  0  0
 29 32  1  0  0  0  0
 30 31  1  0  0  0  0
 31 57  1  0  0  0  0
 31 58  1  0  0  0  0
 31 59  1  0  0  0  0
 32 60  1  0  0  0  0
 32 61  1  0  0  0  0
 32 62  1  0  0  0  0
 33 34  1  0  0  0  0
 34 63  1  0  0  0  0
 34 64  1  0  0  0  0
 34 65  1  0  0  0  0
 35 66  1  0  0  0  0
 35 67  1  0  0  0  0
 35 68  1  0  0  0  0
 36 69  1  0  0  0  0
 36 70  1  0  0  0  0
 71 72  1  0  0  0  0
M  CHG  1  71   1
M  END
$$$$
ZINC03834137
  -OEChem-08230709403D

 57 59  0     1  0  0  0  0  0999 V2000
    3.0154   13.4269   -1.0480 H   0  0  0  0  0  0  0  0  0  0  0  0
    0.9888   13.4520   -0.8554 C   0  0  0  0  0  0  0  0  0  0  0  0
   -0.2379   12.6972   -1.1996 C   0  0  0  0  0  0  0  0  0  0  0  0
   -1.4876   13.1746   -0.8051 C   0  0  0  0  0  0  0  0  0  0  0  0
   -2.6269   12.4672   -1.1291 C   0  0  0  0  0  0  0  0  0  0  0  0
   -2.5320   11.2892   -1.8487 C   0  0  0  0  0  0  0  0  0  0  0  0
   -1.2950   10.8078   -2.2378 C   0  0  0  0  0  0  0  0  0  0  0  0
   -0.1482   11.5065   -1.9197 C   0  0  0  0  0  0  0  0  0  0  0  0
   -1.1999    9.5207   -3.0160 C   0  0  0  0  0  0  0  0  0  0  0  0
   -1.0602    8.3467   -2.0450 C   0  0  1  0  0  0  0  0  0  0  0  0
   -1.8852    8.3640   -1.3328 H   0  0  0  0  0  0  0  0  0  0  0  0
   -1.0885    7.0516   -2.8150 C   0  0  0  0  0  0  0  0  0  0  0  0
   -0.1445    6.2990   -2.7664 O   0  0  0  0  0  0  0  0  0  0  0  0
   -2.1624    6.7343   -3.5551 O   0  0  0  0  0  0  0  0  0  0  0  0
   -2.1202    5.4713   -4.2702 C   0  0  0  0  0  0  0  0  0  0  0  0
   -3.5396    4.9179   -4.4121 C   0  0  0  0  0  0  0  0  0  0  0  0
   -1.5176    5.6914   -5.6592 C   0  0  0  0  0  0  0  0  0  0  0  0
    0.2100    8.4581   -1.3235 N   0  0  0  0  0  0  0  0  0  0  0  0
    0.3098    7.9743    0.2571 S   0  0  0  0  0  0  0  0  0  0  0  0
   -0.7879    8.5707    0.9344 O   0  0  0  0  0  0  0  0  0  0  0  0
    1.6567    8.1800    0.6605 O   0  0  0  0  0  0  0  0  0  0  0  0
    0.0351    6.2341    0.2876 C   0  0  0  0  0  0  0  0  0  0  0  0
    1.1187    5.3659    0.1660 C   0  0  0  0  0  0  0  0  0  0  0  0
    0.9411    4.0167    0.1858 C   0  0  0  0  0  0  0  0  0  0  0  0
   -0.3528    3.4876    0.3306 C   0  0  0  0  0  0  0  0  0  0  0  0
   -0.5756    2.1002    0.3549 C   0  0  0  0  0  0  0  0  0  0  0  0
   -1.8427    1.6241    0.4963 C   0  0  0  0  0  0  0  0  0  0  0  0
   -2.9268    2.4924    0.6123 C   0  0  0  0  0  0  0  0  0  0  0  0
   -2.7485    3.8415    0.5988 C   0  0  0  0  0  0  0  0  0  0  0  0
   -1.4545    4.3705    0.4541 C   0  0  0  0  0  0  0  0  0  0  0  0
   -1.2319    5.7579    0.4290 C   0  0  0  0  0  0  0  0  0  0  0  0
    0.8970   14.6283   -0.1439 N   0  0  0  0  0  0  0  0  0  0  0  0
   -1.5633   14.0965   -0.2475 H   0  0  0  0  0  0  0  0  0  0  0  0
   -3.5952   12.8356   -0.8239 H   0  0  0  0  0  0  0  0  0  0  0  0
   -3.4269   10.7411   -2.1038 H   0  0  0  0  0  0  0  0  0  0  0  0
    0.8168   11.1317   -2.2275 H   0  0  0  0  0  0  0  0  0  0  0  0
   -0.3295    9.5558   -3.6713 H   0  0  0  0  0  0  0  0  0  0  0  0
   -2.1010    9.3911   -3.6154 H   0  0  0  0  0  0  0  0  0  0  0  0
   -1.5068    4.7605   -3.7164 H   0  0  0  0  0  0  0  0  0  0  0  0
   -4.1530    5.6286   -4.9659 H   0  0  0  0  0  0  0  0  0  0  0  0
   -3.5080    3.9697   -4.9488 H   0  0  0  0  0  0  0  0  0  0  0  0
   -3.9690    4.7610   -3.4225 H   0  0  0  0  0  0  0  0  0  0  0  0
   -1.4858    4.7432   -6.1959 H   0  0  0  0  0  0  0  0  0  0  0  0
   -2.1309    6.4022   -6.2129 H   0  0  0  0  0  0  0  0  0  0  0  0
   -0.5063    6.0856   -5.5581 H   0  0  0  0  0  0  0  0  0  0  0  0
    0.9926    8.8153   -1.7717 H   0  0  0  0  0  0  0  0  0  0  0  0
    2.1140    5.7698    0.0549 H   0  0  0  0  0  0  0  0  0  0  0  0
    1.7902    3.3561    0.0901 H   0  0  0  0  0  0  0  0  0  0  0  0
    0.2543    1.4155    0.2616 H   0  0  0  0  0  0  0  0  0  0  0  0
   -2.0111    0.5575    0.5143 H   0  0  0  0  0  0  0  0  0  0  0  0
   -3.9227    2.0885    0.7189 H   0  0  0  0  0  0  0  0  0  0  0  0
   -3.5975    4.5022    0.6935 H   0  0  0  0  0  0  0  0  0  0  0  0
   -2.0619    6.4426    0.5220 H   0  0  0  0  0  0  0  0  0  0  0  0
    0.0289   14.9619    0.1318 H   0  0  0  0  0  0  0  0  0  0  0  0
    1.7005   15.1227    0.0816 H   0  0  0  0  0  0  0  0  0  0  0  0
    2.1424   12.9438   -1.2605 N   0  3  0  0  0  0  0  0  0  0  0  0
    2.1583   12.0634   -1.7887 H   0  0  0  0  0  0  0  0  0  0  0  0
  1 56  1  0  0  0  0
  2  3  1  0  0  0  0
  2 32  1  0  0  0  0
  2 56  2  0  0  0  0
  3  8  2  0  0  0  0
  3  4  1  0  0  0  0
  4  5  2  0  0  0  0
  4 33  1  0  0  0  0
  5  6  1  0  0  0  0
  5 34  1  0  0  0  0
  6  7  2  0  0  0  0
  6 35  1  0  0  0  0
  7  8  1  0  0  0  0
  7  9  1  0  0  0  0
  8 36  1  0  0  0  0
  9 10  1  0  0  0  0
  9 37  1  0  0  0  0
  9 38  1  0  0  0  0
 10 11  1  0  0  0  0
 10 12  1  0  0  0  0
 10 18  1  0  0  0  0
 12 13  2  0  0  0  0
 12 14  1  0  0  0  0
 14 15  1  0  0  0  0
 15 16  1  0  0  0  0
 15 17  1  0  0  0  0
 15 39  1  0  0  0  0
 16 40  1  0  0  0  0
 16 41  1  0  0  0  0
 16 42  1  0  0  0  0
 17 43  1  0  0  0  0
 17 44  1  0  0  0  0
 17 45  1  0  0  0  0
 18 19  1  0  0  0  0
 18 46  1  0  0  0  0
 19 20  2  0  0  0  0
 19 21  2  0  0  0  0
 19 22  1  0  0  0  0
 22 31  2  0  0  0  0
 22 23  1  0  0  0  0
 23 24  2  0  0  0  0
 23 47  1  0  0  0  0
 24 25  1  0  0  0  0
 24 48  1  0  0  0  0
 25 30  2  0  0  0  0
 25 26  1  0  0  0  0
 26 27  2  0  0  0  0
 26 49  1  0  0  0  0
 27 28  1  0  0  0  0
 27 50  1  0  0  0  0
 28 29  2  0  0  0  0
 28 51  1  0  0  0  0
 29 30  1  0  0  0  0
 29 52  1  0  0  0  0
 30 31  1  0  0  0  0
 31 53  1  0  0  0  0
 32 54  1  0  0  0  0
 32 55  1  0  0  0  0
 56 57  1  0  0  0  0
M  CHG  1  56   1
M  END
$$$$
ZINC03834138
  -OEChem-08230709403D

 66 70  0     1  0  0  0  0  0999 V2000
    4.6321    2.0323    0.4537 H   0  0  0  0  0  0  0  0  0  0  0  0
    2.8466    2.5163   -0.3958 C   0  0  0  0  0  0  0  0  0  0  0  0
    1.5864    1.9301   -0.9071 C   0  0  0  0  0  0  0  0  0  0  0  0
    0.5930    2.7557   -1.4333 C   0  0  0  0  0  0  0  0  0  0  0  0
   -0.5790    2.2035   -1.9080 C   0  0  0  0  0  0  0  0  0  0  0  0
   -0.7698    0.8339   -1.8627 C   0  0  0  0  0  0  0  0  0  0  0  0
    0.2118    0.0100   -1.3424 C   0  0  0  0  0  0  0  0  0  0  0  0
    1.3884    0.5504   -0.8645 C   0  0  0  0  0  0  0  0  0  0  0  0
   -0.0037   -1.4808   -1.2977 C   0  0  0  0  0  0  0  0  0  0  0  0
    0.5135   -2.1100   -2.5930 C   0  0  1  0  0  0  0  0  0  0  0  0
    1.5549   -1.8257   -2.7445 H   0  0  0  0  0  0  0  0  0  0  0  0
    0.4112   -3.6105   -2.4984 C   0  0  0  0  0  0  0  0  0  0  0  0
   -0.5222   -4.1884   -3.0142 O   0  0  0  0  0  0  0  0  0  0  0  0
    1.3567   -4.3103   -1.8406 N   0  0  0  0  0  0  0  0  0  0  0  0
    2.4598   -3.6125   -1.1709 C   0  0  0  0  0  0  0  0  0  0  0  0
    3.7509   -4.3364   -1.4589 C   0  0  0  0  0  0  0  0  0  0  0  0
    4.9476   -3.6540   -1.4687 C   0  0  0  0  0  0  0  0  0  0  0  0
    6.1292   -4.3314   -1.7181 C   0  0  0  0  0  0  0  0  0  0  0  0
    6.1184   -5.6949   -1.9568 C   0  0  0  0  0  0  0  0  0  0  0  0
    4.9273   -6.3905   -1.9565 C   0  0  0  0  0  0  0  0  0  0  0  0
    3.7304   -5.7114   -1.7143 C   0  0  0  0  0  0  0  0  0  0  0  0
    2.4446   -6.4251   -1.7518 C   0  0  0  0  0  0  0  0  0  0  0  0
    1.2894   -5.7099   -1.7871 C   0  0  0  0  0  0  0  0  0  0  0  0
   -0.0114   -6.3911   -1.7735 C   0  0  0  0  0  0  0  0  0  0  0  0
   -1.0354   -5.7441   -1.6678 O   0  0  0  0  0  0  0  0  0  0  0  0
   -0.2913   -1.6357   -3.7215 N   0  0  0  0  0  0  0  0  0  0  0  0
    0.2181   -0.3372   -4.6140 S   0  0  0  0  0  0  0  0  0  0  0  0
   -0.7490   -0.1429   -5.6369 O   0  0  0  0  0  0  0  0  0  0  0  0
    0.5617    0.6833   -3.6867 O   0  0  0  0  0  0  0  0  0  0  0  0
    1.7126   -0.8115   -5.4177 C   0  0  0  0  0  0  0  0  0  0  0  0
    2.9336   -0.5887   -4.7835 C   0  0  0  0  0  0  0  0  0  0  0  0
    4.1058   -0.9481   -5.3742 C   0  0  0  0  0  0  0  0  0  0  0  0
    4.0892   -1.5423   -6.6477 C   0  0  0  0  0  0  0  0  0  0  0  0
    5.2795   -1.9206   -7.2921 C   0  0  0  0  0  0  0  0  0  0  0  0
    5.2247   -2.4939   -8.5251 C   0  0  0  0  0  0  0  0  0  0  0  0
    4.0041   -2.7117   -9.1617 C   0  0  0  0  0  0  0  0  0  0  0  0
    2.8315   -2.3580   -8.5684 C   0  0  0  0  0  0  0  0  0  0  0  0
    2.8480   -1.7639   -7.2949 C   0  0  0  0  0  0  0  0  0  0  0  0
    1.6578   -1.3848   -6.6508 C   0  0  0  0  0  0  0  0  0  0  0  0
    3.0393    3.8798   -0.4391 N   0  0  0  0  0  0  0  0  0  0  0  0
    0.7410    3.8248   -1.4696 H   0  0  0  0  0  0  0  0  0  0  0  0
   -1.3471    2.8413   -2.3198 H   0  0  0  0  0  0  0  0  0  0  0  0
   -1.6889    0.4064   -2.2355 H   0  0  0  0  0  0  0  0  0  0  0  0
    2.1539   -0.0938   -0.4581 H   0  0  0  0  0  0  0  0  0  0  0  0
    0.5364   -1.9007   -0.4490 H   0  0  0  0  0  0  0  0  0  0  0  0
   -1.0679   -1.6911   -1.1913 H   0  0  0  0  0  0  0  0  0  0  0  0
    2.5243   -2.5904   -1.5442 H   0  0  0  0  0  0  0  0  0  0  0  0
    2.2818   -3.5972   -0.0957 H   0  0  0  0  0  0  0  0  0  0  0  0
    4.9642   -2.5904   -1.2816 H   0  0  0  0  0  0  0  0  0  0  0  0
    7.0651   -3.7925   -1.7260 H   0  0  0  0  0  0  0  0  0  0  0  0
    7.0459   -6.2158   -2.1437 H   0  0  0  0  0  0  0  0  0  0  0  0
    4.9199   -7.4544   -2.1423 H   0  0  0  0  0  0  0  0  0  0  0  0
    2.4183   -7.5048   -1.7475 H   0  0  0  0  0  0  0  0  0  0  0  0
   -1.1226   -2.0823   -3.9459 H   0  0  0  0  0  0  0  0  0  0  0  0
    2.9495   -0.1279   -3.8069 H   0  0  0  0  0  0  0  0  0  0  0  0
    5.0442   -0.7728   -4.8692 H   0  0  0  0  0  0  0  0  0  0  0  0
    6.2325   -1.7579   -6.8108 H   0  0  0  0  0  0  0  0  0  0  0  0
    6.1408   -2.7841   -9.0180 H   0  0  0  0  0  0  0  0  0  0  0  0
    3.9886   -3.1678  -10.1405 H   0  0  0  0  0  0  0  0  0  0  0  0
    1.8931   -2.5326   -9.0738 H   0  0  0  0  0  0  0  0  0  0  0  0
    0.7047   -1.5472   -7.1319 H   0  0  0  0  0  0  0  0  0  0  0  0
    2.3496    4.4559   -0.8045 H   0  0  0  0  0  0  0  0  0  0  0  0
    3.8648    4.2639   -0.1043 H   0  0  0  0  0  0  0  0  0  0  0  0
    3.7479    1.6768    0.0898 N   0  3  0  0  0  0  0  0  0  0  0  0
    3.5568    0.6680    0.1001 H   0  0  0  0  0  0  0  0  0  0  0  0
   -0.0704   -7.7344   -1.8783 O   0  5  0  0  0  0  0  0  0  0  0  0
  1 64  1  0  0  0  0
  2  3  1  0  0  0  0
  2 40  1  0  0  0  0
  2 64  2  0  0  0  0
  3  8  2  0  0  0  0
  3  4  1  0  0  0  0
  4  5  2  0  0  0  0
  4 41  1  0  0  0  0
  5  6  1  0  0  0  0
  5 42  1  0  0  0  0
  6  7  2  0  0  0  0
  6 43  1  0  0  0  0
  7  8  1  0  0  0  0
  7  9  1  0  0  0  0
  8 44  1  0  0  0  0
  9 10  1  0  0  0  0
  9 45  1  0  0  0  0
  9 46  1  0  0  0  0
 10 11  1  0  0  0  0
 10 12  1  0  0  0  0
 10 26  1  0  0  0  0
 12 13  2  0  0  0  0
 12 14  1  0  0  0  0
 14 23  1  0  0  0  0
 14 15  1  0  0  0  0
 15 16  1  0  0  0  0
 15 47  1  0  0  0  0
 15 48  1  0  0  0  0
 16 21  2  0  0  0  0
 16 17  1  0  0  0  0
 17 18  2  0  0  0  0
 17 49  1  0  0  0  0
 18 19  1  0  0  0  0
 18 50  1  0  0  0  0
 19 20  2  0  0  0  0
 19 51  1  0  0  0  0
 20 21  1  0  0  0  0
 20 52  1  0  0  0  0
 21 22  1  0  0  0  0
 22 23  2  0  0  0  0
 22 53  1  0  0  0  0
 23 24  1  0  0  0  0
 24 25  2  0  0  0  0
 24 66  1  0  0  0  0
 26 27  1  0  0  0  0
 26 54  1  0  0  0  0
 27 28  2  0  0  0  0
 27 29  2  0  0  0  0
 27 30  1  0  0  0  0
 30 39  2  0  0  0  0
 30 31  1  0  0  0  0
 31 32  2  0  0  0  0
 31 55  1  0  0  0  0
 32 33  1  0  0  0  0
 32 56  1  0  0  0  0
 33 38  2  0  0  0  0
 33 34  1  0  0  0  0
 34 35  2  0  0  0  0
 34 57  1  0  0  0  0
 35 36  1  0  0  0  0
 35 58  1  0  0  0  0
 36 37  2  0  0  0  0
 36 59  1  0  0  0  0
 37 38  1  0  0  0  0
 37 60  1  0  0  0  0
 38 39  1  0  0  0  0
 39 61  1  0  0  0  0
 40 62  1  0  0  0  0
 40 63  1  0  0  0  0
 64 65  1  0  0  0  0
M  CHG  2  64   1  66  -1
M  END
$$$$
ZINC03834139
  -OEChem-08230709403D

 66 70  0     1  0  0  0  0  0999 V2000
    0.9905   -1.6421   -1.2684 H   0  0  0  0  0  0  0  0  0  0  0  0
   -0.3781   -0.2454   -0.7023 C   0  0  0  0  0  0  0  0  0  0  0  0
   -0.5197    1.1756   -0.3100 C   0  0  0  0  0  0  0  0  0  0  0  0
   -1.7762    1.6934    0.0038 C   0  0  0  0  0  0  0  0  0  0  0  0
   -1.9010    3.0165    0.3741 C   0  0  0  0  0  0  0  0  0  0  0  0
   -0.7846    3.8324    0.4228 C   0  0  0  0  0  0  0  0  0  0  0  0
    0.4632    3.3262    0.1071 C   0  0  0  0  0  0  0  0  0  0  0  0
    0.6016    2.0026   -0.2586 C   0  0  0  0  0  0  0  0  0  0  0  0
    1.6741    4.2215    0.1632 C   0  0  0  0  0  0  0  0  0  0  0  0
    1.9239    4.8287   -1.2189 C   0  0  1  0  0  0  0  0  0  0  0  0
    1.0185    5.3270   -1.5657 H   0  0  0  0  0  0  0  0  0  0  0  0
    3.0466    5.8302   -1.1321 C   0  0  0  0  0  0  0  0  0  0  0  0
    4.1271    5.5736   -1.6197 O   0  0  0  0  0  0  0  0  0  0  0  0
    2.8501    7.0109   -0.5126 N   0  0  0  0  0  0  0  0  0  0  0  0
    1.5192    7.3784   -0.0102 C   0  0  0  0  0  0  0  0  0  0  0  0
    1.2513    8.8336   -0.4006 C   0  0  0  0  0  0  0  0  0  0  0  0
    2.2789    9.7303    0.2895 C   0  0  0  0  0  0  0  0  0  0  0  0
    3.6745    9.2231    0.0386 C   0  0  0  0  0  0  0  0  0  0  0  0
    3.9107    7.9114   -0.3421 C   0  0  0  0  0  0  0  0  0  0  0  0
    5.2119    7.4740   -0.5603 C   0  0  0  0  0  0  0  0  0  0  0  0
    6.2702    8.3464   -0.4006 C   0  0  0  0  0  0  0  0  0  0  0  0
    6.0337    9.6552   -0.0232 C   0  0  0  0  0  0  0  0  0  0  0  0
    4.7413   10.0918    0.1955 C   0  0  0  0  0  0  0  0  0  0  0  0
    2.2881    3.7670   -2.1602 N   0  0  0  0  0  0  0  0  0  0  0  0
    1.8004    3.8579   -3.7401 S   0  0  0  0  0  0  0  0  0  0  0  0
    2.3259    2.7110   -4.3941 O   0  0  0  0  0  0  0  0  0  0  0  0
    0.4106    4.1534   -3.7198 O   0  0  0  0  0  0  0  0  0  0  0  0
    2.6020    5.2557   -4.4531 C   0  0  0  0  0  0  0  0  0  0  0  0
    1.9788    6.5017   -4.4075 C   0  0  0  0  0  0  0  0  0  0  0  0
    2.5730    7.6023   -4.9438 C   0  0  0  0  0  0  0  0  0  0  0  0
    3.8285    7.4821   -5.5639 C   0  0  0  0  0  0  0  0  0  0  0  0
    4.4699    8.5947   -6.1347 C   0  0  0  0  0  0  0  0  0  0  0  0
    5.6857    8.4406   -6.7267 C   0  0  0  0  0  0  0  0  0  0  0  0
    6.3064    7.1937   -6.7770 C   0  0  0  0  0  0  0  0  0  0  0  0
    5.7150    6.0942   -6.2353 C   0  0  0  0  0  0  0  0  0  0  0  0
    4.4597    6.2143   -5.6151 C   0  0  0  0  0  0  0  0  0  0  0  0
    3.8177    5.1016   -5.0450 C   0  0  0  0  0  0  0  0  0  0  0  0
   -1.4880   -1.0602   -0.7521 N   0  0  0  0  0  0  0  0  0  0  0  0
   -2.6490    1.0586   -0.0384 H   0  0  0  0  0  0  0  0  0  0  0  0
   -2.8728    3.4175    0.6220 H   0  0  0  0  0  0  0  0  0  0  0  0
   -0.8880    4.8688    0.7088 H   0  0  0  0  0  0  0  0  0  0  0  0
    1.5767    1.6083   -0.5042 H   0  0  0  0  0  0  0  0  0  0  0  0
    1.5027    5.0198    0.8851 H   0  0  0  0  0  0  0  0  0  0  0  0
    2.5436    3.6382    0.4661 H   0  0  0  0  0  0  0  0  0  0  0  0
    0.7642    6.7318   -0.4575 H   0  0  0  0  0  0  0  0  0  0  0  0
    1.4942    7.2802    1.0751 H   0  0  0  0  0  0  0  0  0  0  0  0
    0.2477    9.1184   -0.0848 H   0  0  0  0  0  0  0  0  0  0  0  0
    1.3388    8.9428   -1.4816 H   0  0  0  0  0  0  0  0  0  0  0  0
    2.0865    9.7384    1.3624 H   0  0  0  0  0  0  0  0  0  0  0  0
    2.1896   10.7448   -0.0991 H   0  0  0  0  0  0  0  0  0  0  0  0
    5.3952    6.4511   -0.8546 H   0  0  0  0  0  0  0  0  0  0  0  0
    7.2813    8.0066   -0.5698 H   0  0  0  0  0  0  0  0  0  0  0  0
    6.8612   10.3379    0.1013 H   0  0  0  0  0  0  0  0  0  0  0  0
    4.5622   11.1152    0.4904 H   0  0  0  0  0  0  0  0  0  0  0  0
    2.8150    3.0106   -1.8581 H   0  0  0  0  0  0  0  0  0  0  0  0
    1.0119    6.5958   -3.9358 H   0  0  0  0  0  0  0  0  0  0  0  0
    2.0800    8.5620   -4.8978 H   0  0  0  0  0  0  0  0  0  0  0  0
    4.0010    9.5670   -6.1031 H   0  0  0  0  0  0  0  0  0  0  0  0
    6.1767    9.2973   -7.1642 H   0  0  0  0  0  0  0  0  0  0  0  0
    7.2710    7.0986   -7.2534 H   0  0  0  0  0  0  0  0  0  0  0  0
    6.2077    5.1343   -6.2822 H   0  0  0  0  0  0  0  0  0  0  0  0
    4.2866    4.1292   -5.0767 H   0  0  0  0  0  0  0  0  0  0  0  0
   -2.3622   -0.7032   -0.5303 H   0  0  0  0  0  0  0  0  0  0  0  0
   -1.3952   -1.9910   -1.0091 H   0  0  0  0  0  0  0  0  0  0  0  0
    0.8415   -0.6714   -0.9928 N   0  3  0  0  0  0  0  0  0  0  0  0
    1.6372   -0.0246   -0.9405 H   0  0  0  0  0  0  0  0  0  0  0  0
  1 65  1  0  0  0  0
  2  3  1  0  0  0  0
  2 38  1  0  0  0  0
  2 65  2  0  0  0  0
  3  8  2  0  0  0  0
  3  4  1  0  0  0  0
  4  5  2  0  0  0  0
  4 39  1  0  0  0  0
  5  6  1  0  0  0  0
  5 40  1  0  0  0  0
  6  7  2  0  0  0  0
  6 41  1  0  0  0  0
  7  8  1  0  0  0  0
  7  9  1  0  0  0  0
  8 42  1  0  0  0  0
  9 10  1  0  0  0  0
  9 43  1  0  0  0  0
  9 44  1  0  0  0  0
 10 11  1  0  0  0  0
 10 12  1  0  0  0  0
 10 24  1  0  0  0  0
 12 13  2  0  0  0  0
 12 14  1  0  0  0  0
 14 19  1  0  0  0  0
 14 15  1  0  0  0  0
 15 16  1  0  0  0  0
 15 45  1  0  0  0  0
 15 46  1  0  0  0  0
 16 17  1  0  0  0  0
 16 47  1  0  0  0  0
 16 48  1  0  0  0  0
 17 18  1  0  0  0  0
 17 49  1  0  0  0  0
 17 50  1  0  0  0  0
 18 23  2  0  0  0  0
 18 19  1  0  0  0  0
 19 20  2  0  0  0  0
 20 21  1  0  0  0  0
 20 51  1  0  0  0  0
 21 22  2  0  0  0  0
 21 52  1  0  0  0  0
 22 23  1  0  0  0  0
 22 53  1  0  0  0  0
 23 54  1  0  0  0  0
 24 25  1  0  0  0  0
 24 55  1  0  0  0  0
 25 26  2  0  0  0  0
 25 27  2  0  0  0  0
 25 28  1  0  0  0  0
 28 37  2  0  0  0  0
 28 29  1  0  0  0  0
 29 30  2  0  0  0  0
 29 56  1  0  0  0  0
 30 31  1  0  0  0  0
 30 57  1  0  0  0  0
 31 36  2  0  0  0  0
 31 32  1  0  0  0  0
 32 33  2  0  0  0  0
 32 58  1  0  0  0  0
 33 34  1  0  0  0  0
 33 59  1  0  0  0  0
 34 35  2  0  0  0  0
 34 60  1  0  0  0  0
 35 36  1  0  0  0  0
 35 61  1  0  0  0  0
 36 37  1  0  0  0  0
 37 62  1  0  0  0  0
 38 63  1  0  0  0  0
 38 64  1  0  0  0  0
 65 66  1  0  0  0  0
M  CHG  1  65   1
M  END
$$$$
ZINC03834140
  -OEChem-08230709403D

 61 63  0     1  0  0  0  0  0999 V2000
    0.8953   12.3650    2.2190 H   0  0  0  0  0  0  0  0  0  0  0  0
   -0.8038   11.2549    2.3773 C   0  0  0  0  0  0  0  0  0  0  0  0
   -1.6851   10.3337    1.6237 C   0  0  0  0  0  0  0  0  0  0  0  0
   -2.8214    9.7989    2.2304 C   0  0  0  0  0  0  0  0  0  0  0  0
   -3.6389    8.9416    1.5231 C   0  0  0  0  0  0  0  0  0  0  0  0
   -3.3364    8.6166    0.2126 C   0  0  0  0  0  0  0  0  0  0  0  0
   -2.2080    9.1394   -0.3926 C   0  0  0  0  0  0  0  0  0  0  0  0
   -1.3825    9.9980    0.3047 C   0  0  0  0  0  0  0  0  0  0  0  0
   -1.8823    8.7755   -1.8184 C   0  0  0  0  0  0  0  0  0  0  0  0
   -0.9955    7.5288   -1.8368 C   0  0  1  0  0  0  0  0  0  0  0  0
   -1.4849    6.7267   -1.2844 H   0  0  0  0  0  0  0  0  0  0  0  0
   -0.7710    7.0931   -3.2618 C   0  0  0  0  0  0  0  0  0  0  0  0
    0.3546    7.0447   -3.7109 O   0  0  0  0  0  0  0  0  0  0  0  0
   -1.8210    6.7572   -4.0372 N   0  0  0  0  0  0  0  0  0  0  0  0
   -1.6026    6.3337   -5.4225 C   0  0  0  0  0  0  0  0  0  0  0  0
   -2.9483    6.0119   -6.0755 C   0  0  0  0  0  0  0  0  0  0  0  0
   -2.7204    5.5695   -7.5223 C   0  0  0  0  0  0  0  0  0  0  0  0
   -4.0661    5.2477   -8.1753 C   0  0  0  0  0  0  0  0  0  0  0  0
    0.2930    7.8369   -1.2115 N   0  0  0  0  0  0  0  0  0  0  0  0
    0.5361    7.5028    0.3922 S   0  0  0  0  0  0  0  0  0  0  0  0
   -0.5813    8.0335    1.0915 O   0  0  0  0  0  0  0  0  0  0  0  0
    1.8721    7.8854    0.6887 O   0  0  0  0  0  0  0  0  0  0  0  0
    0.4608    5.7522    0.5769 C   0  0  0  0  0  0  0  0  0  0  0  0
    1.6263    4.9980    0.4526 C   0  0  0  0  0  0  0  0  0  0  0  0
    1.6029    3.6442    0.5896 C   0  0  0  0  0  0  0  0  0  0  0  0
    0.3869    2.9936    0.8603 C   0  0  0  0  0  0  0  0  0  0  0  0
    0.3231    1.5974    1.0078 C   0  0  0  0  0  0  0  0  0  0  0  0
   -0.8724    1.0019    1.2692 C   0  0  0  0  0  0  0  0  0  0  0  0
   -2.0388    1.7556    1.3879 C   0  0  0  0  0  0  0  0  0  0  0  0
   -2.0142    3.1100    1.2571 C   0  0  0  0  0  0  0  0  0  0  0  0
   -0.7982    3.7604    0.9866 C   0  0  0  0  0  0  0  0  0  0  0  0
   -0.7346    5.1565    0.8382 C   0  0  0  0  0  0  0  0  0  0  0  0
   -1.1054   11.5847    3.6806 N   0  0  0  0  0  0  0  0  0  0  0  0
   -3.0611   10.0555    3.2518 H   0  0  0  0  0  0  0  0  0  0  0  0
   -4.5188    8.5264    1.9919 H   0  0  0  0  0  0  0  0  0  0  0  0
   -3.9817    7.9486   -0.3385 H   0  0  0  0  0  0  0  0  0  0  0  0
   -0.5038   10.4088   -0.1703 H   0  0  0  0  0  0  0  0  0  0  0  0
   -1.3556    9.6032   -2.2934 H   0  0  0  0  0  0  0  0  0  0  0  0
   -2.8054    8.5728   -2.3614 H   0  0  0  0  0  0  0  0  0  0  0  0
   -2.7212    6.7960   -3.6780 H   0  0  0  0  0  0  0  0  0  0  0  0
   -1.1133    7.1358   -5.9749 H   0  0  0  0  0  0  0  0  0  0  0  0
   -0.9708    5.4455   -5.4356 H   0  0  0  0  0  0  0  0  0  0  0  0
   -3.4377    5.2097   -5.5231 H   0  0  0  0  0  0  0  0  0  0  0  0
   -3.5802    6.9000   -6.0624 H   0  0  0  0  0  0  0  0  0  0  0  0
   -2.2310    6.3717   -8.0747 H   0  0  0  0  0  0  0  0  0  0  0  0
   -2.0885    4.6813   -7.5354 H   0  0  0  0  0  0  0  0  0  0  0  0
   -3.9036    4.9326   -9.2060 H   0  0  0  0  0  0  0  0  0  0  0  0
   -4.5554    4.4456   -7.6229 H   0  0  0  0  0  0  0  0  0  0  0  0
   -4.6978    6.1358   -8.1622 H   0  0  0  0  0  0  0  0  0  0  0  0
    1.0038    8.2366   -1.7368 H   0  0  0  0  0  0  0  0  0  0  0  0
    2.5621    5.4955    0.2450 H   0  0  0  0  0  0  0  0  0  0  0  0
    2.5139    3.0727    0.4904 H   0  0  0  0  0  0  0  0  0  0  0  0
    1.2180    1.0002    0.9140 H   0  0  0  0  0  0  0  0  0  0  0  0
   -0.9187   -0.0713    1.3817 H   0  0  0  0  0  0  0  0  0  0  0  0
   -2.9754    1.2577    1.5912 H   0  0  0  0  0  0  0  0  0  0  0  0
   -2.9253    3.6814    1.3555 H   0  0  0  0  0  0  0  0  0  0  0  0
   -1.6297    5.7536    0.9318 H   0  0  0  0  0  0  0  0  0  0  0  0
   -1.8950   11.2136    4.1046 H   0  0  0  0  0  0  0  0  0  0  0  0
   -0.5282   12.1881    4.1742 H   0  0  0  0  0  0  0  0  0  0  0  0
    0.2578   11.7270    1.7423 N   0  3  0  0  0  0  0  0  0  0  0  0
    0.4393   11.4510    0.7701 H   0  0  0  0  0  0  0  0  0  0  0  0
  1 60  1  0  0  0  0
  2  3  1  0  0  0  0
  2 33  1  0  0  0  0
  2 60  2  0  0  0  0
  3  8  2  0  0  0  0
  3  4  1  0  0  0  0
  4  5  2  0  0  0  0
  4 34  1  0  0  0  0
  5  6  1  0  0  0  0
  5 35  1  0  0  0  0
  6  7  2  0  0  0  0
  6 36  1  0  0  0  0
  7  8  1  0  0  0  0
  7  9  1  0  0  0  0
  8 37  1  0  0  0  0
  9 10  1  0  0  0  0
  9 38  1  0  0  0  0
  9 39  1  0  0  0  0
 10 11  1  0  0  0  0
 10 12  1  0  0  0  0
 10 19  1  0  0  0  0
 12 13  2  0  0  0  0
 12 14  1  0  0  0  0
 14 15  1  0  0  0  0
 14 40  1  0  0  0  0
 15 16  1  0  0  0  0
 15 41  1  0  0  0  0
 15 42  1  0  0  0  0
 16 17  1  0  0  0  0
 16 43  1  0  0  0  0
 16 44  1  0  0  0  0
 17 18  1  0  0  0  0
 17 45  1  0  0  0  0
 17 46  1  0  0  0  0
 18 47  1  0  0  0  0
 18 48  1  0  0  0  0
 18 49  1  0  0  0  0
 19 20  1  0  0  0  0
 19 50  1  0  0  0  0
 20 21  2  0  0  0  0
 20 22  2  0  0  0  0
 20 23  1  0  0  0  0
 23 32  2  0  0  0  0
 23 24  1  0  0  0  0
 24 25  2  0  0  0  0
 24 51  1  0  0  0  0
 25 26  1  0  0  0  0
 25 52  1  0  0  0  0
 26 31  2  0  0  0  0
 26 27  1  0  0  0  0
 27 28  2  0  0  0  0
 27 53  1  0  0  0  0
 28 29  1  0  0  0  0
 28 54  1  0  0  0  0
 29 30  2  0  0  0  0
 29 55  1  0  0  0  0
 30 31  1  0  0  0  0
 30 56  1  0  0  0  0
 31 32  1  0  0  0  0
 32 57  1  0  0  0  0
 33 58  1  0  0  0  0
 33 59  1  0  0  0  0
 60 61  1  0  0  0  0
M  CHG  1  60   1
M  END
$$$$
ZINC03834141
  -OEChem-08230709403D

 71 73  0     1  0  0  0  0  0999 V2000
    3.9994   -7.9140    6.0003 H   0  0  0  0  0  0  0  0  0  0  0  0
    5.0276   -6.4330    5.0549 C   0  0  0  0  0  0  0  0  0  0  0  0
    4.8579   -5.2663    4.1589 C   0  0  0  0  0  0  0  0  0  0  0  0
    5.9669   -4.5152    3.7695 C   0  0  0  0  0  0  0  0  0  0  0  0
    5.8025   -3.4296    2.9342 C   0  0  0  0  0  0  0  0  0  0  0  0
    4.5414   -3.0886    2.4783 C   0  0  0  0  0  0  0  0  0  0  0  0
    3.4371   -3.8260    2.8655 C   0  0  0  0  0  0  0  0  0  0  0  0
    3.5889   -4.9142    3.7006 C   0  0  0  0  0  0  0  0  0  0  0  0
    2.0663   -3.4443    2.3694 C   0  0  0  0  0  0  0  0  0  0  0  0
    1.4255   -2.4590    3.3489 C   0  0  1  0  0  0  0  0  0  0  0  0
    2.0951   -1.6129    3.5034 H   0  0  0  0  0  0  0  0  0  0  0  0
    0.1176   -1.9680    2.7840 C   0  0  0  0  0  0  0  0  0  0  0  0
   -0.9302   -2.3947    3.2212 O   0  0  0  0  0  0  0  0  0  0  0  0
    0.1121   -1.0545    1.7930 N   0  0  0  0  0  0  0  0  0  0  0  0
   -1.1495   -0.6396    1.1644 C   0  0  0  0  0  0  0  0  0  0  0  0
   -1.2514    0.8877    1.2245 C   0  0  0  0  0  0  0  0  0  0  0  0
   -0.0014    1.5037    0.5918 C   0  0  0  0  0  0  0  0  0  0  0  0
    1.2373    1.0708    1.3795 C   0  0  0  0  0  0  0  0  0  0  0  0
    1.3674   -0.4545    1.3211 C   0  0  0  0  0  0  0  0  0  0  0  0
   -0.1136    3.0063    0.6186 C   0  0  0  0  0  0  0  0  0  0  0  0
   -1.0925    3.5306    1.0947 O   0  0  0  0  0  0  0  0  0  0  0  0
    0.8739    3.7622    0.1135 O   0  0  0  0  0  0  0  0  0  0  0  0
    0.6982    5.2022    0.1730 C   0  0  0  0  0  0  0  0  0  0  0  0
    1.1836   -3.1302    4.6285 N   0  0  0  0  0  0  0  0  0  0  0  0
    1.8735   -2.5433    6.0147 S   0  0  0  0  0  0  0  0  0  0  0  0
    1.4413   -3.3880    7.0726 O   0  0  0  0  0  0  0  0  0  0  0  0
    3.2479   -2.3280    5.7248 O   0  0  0  0  0  0  0  0  0  0  0  0
    1.1680   -0.9572    6.3167 C   0  0  0  0  0  0  0  0  0  0  0  0
    1.9406    0.1808    6.1776 C   0  0  0  0  0  0  0  0  0  0  0  0
    1.3860    1.4253    6.4101 C   0  0  0  0  0  0  0  0  0  0  0  0
    0.0613    1.5316    6.7907 C   0  0  0  0  0  0  0  0  0  0  0  0
   -0.7098    0.3934    6.9349 C   0  0  0  0  0  0  0  0  0  0  0  0
   -0.1564   -0.8510    6.6981 C   0  0  0  0  0  0  0  0  0  0  0  0
   -0.9970   -2.0918    6.8553 C   0  0  0  0  0  0  0  0  0  0  0  0
   -0.5424    2.8882    7.0480 C   0  0  0  0  0  0  0  0  0  0  0  0
    3.3862    0.0646    5.7678 C   0  0  0  0  0  0  0  0  0  0  0  0
    6.2828   -6.7784    5.5060 N   0  0  0  0  0  0  0  0  0  0  0  0
    6.9523   -4.7833    4.1209 H   0  0  0  0  0  0  0  0  0  0  0  0
    6.6604   -2.8470    2.6323 H   0  0  0  0  0  0  0  0  0  0  0  0
    4.4182   -2.2406    1.8210 H   0  0  0  0  0  0  0  0  0  0  0  0
    2.7264   -5.4918    3.9991 H   0  0  0  0  0  0  0  0  0  0  0  0
    1.4456   -4.3370    2.2938 H   0  0  0  0  0  0  0  0  0  0  0  0
    2.1521   -2.9772    1.3882 H   0  0  0  0  0  0  0  0  0  0  0  0
   -1.9882   -1.0832    1.7008 H   0  0  0  0  0  0  0  0  0  0  0  0
   -1.1668   -0.9663    0.1246 H   0  0  0  0  0  0  0  0  0  0  0  0
   -2.1352    1.2153    0.6772 H   0  0  0  0  0  0  0  0  0  0  0  0
   -1.3277    1.2065    2.2641 H   0  0  0  0  0  0  0  0  0  0  0  0
    0.0878    1.1647   -0.4403 H   0  0  0  0  0  0  0  0  0  0  0  0
    1.1375    1.3880    2.4176 H   0  0  0  0  0  0  0  0  0  0  0  0
    2.1249    1.5287    0.9430 H   0  0  0  0  0  0  0  0  0  0  0  0
    2.1893   -0.7758    1.9609 H   0  0  0  0  0  0  0  0  0  0  0  0
    1.5578   -0.7659    0.2940 H   0  0  0  0  0  0  0  0  0  0  0  0
    1.5661    5.6927   -0.2676 H   0  0  0  0  0  0  0  0  0  0  0  0
   -0.1976    5.4821   -0.3813 H   0  0  0  0  0  0  0  0  0  0  0  0
    0.5940    5.5129    1.2126 H   0  0  0  0  0  0  0  0  0  0  0  0
    0.6192   -3.9184    4.6637 H   0  0  0  0  0  0  0  0  0  0  0  0
    1.9883    2.3147    6.2973 H   0  0  0  0  0  0  0  0  0  0  0  0
   -1.7448    0.4764    7.2322 H   0  0  0  0  0  0  0  0  0  0  0  0
   -0.9206   -2.4550    7.8801 H   0  0  0  0  0  0  0  0  0  0  0  0
   -2.0372   -1.8570    6.6296 H   0  0  0  0  0  0  0  0  0  0  0  0
   -0.6412   -2.8609    6.1698 H   0  0  0  0  0  0  0  0  0  0  0  0
   -0.4097    3.1519    8.0972 H   0  0  0  0  0  0  0  0  0  0  0  0
   -0.0479    3.6306    6.4214 H   0  0  0  0  0  0  0  0  0  0  0  0
   -1.6060    2.8634    6.8112 H   0  0  0  0  0  0  0  0  0  0  0  0
    3.4466   -0.1020    4.6923 H   0  0  0  0  0  0  0  0  0  0  0  0
    3.9113    0.9851    6.0229 H   0  0  0  0  0  0  0  0  0  0  0  0
    3.8461   -0.7732    6.2917 H   0  0  0  0  0  0  0  0  0  0  0  0
    7.0554   -6.2573    5.2367 H   0  0  0  0  0  0  0  0  0  0  0  0
    6.3940   -7.5426    6.0929 H   0  0  0  0  0  0  0  0  0  0  0  0
    3.9342   -7.1027    5.3854 N   0  3  0  0  0  0  0  0  0  0  0  0
    3.0208   -6.8053    5.0229 H   0  0  0  0  0  0  0  0  0  0  0  0
  1 70  1  0  0  0  0
  2  3  1  0  0  0  0
  2 37  1  0  0  0  0
  2 70  2  0  0  0  0
  3  8  2  0  0  0  0
  3  4  1  0  0  0  0
  4  5  2  0  0  0  0
  4 38  1  0  0  0  0
  5  6  1  0  0  0  0
  5 39  1  0  0  0  0
  6  7  2  0  0  0  0
  6 40  1  0  0  0  0
  7  8  1  0  0  0  0
  7  9  1  0  0  0  0
  8 41  1  0  0  0  0
  9 10  1  0  0  0  0
  9 42  1  0  0  0  0
  9 43  1  0  0  0  0
 10 11  1  0  0  0  0
 10 12  1  0  0  0  0
 10 24  1  0  0  0  0
 12 13  2  0  0  0  0
 12 14  1  0  0  0  0
 14 19  1  0  0  0  0
 14 15  1  0  0  0  0
 15 16  1  0  0  0  0
 15 44  1  0  0  0  0
 15 45  1  0  0  0  0
 16 17  1  0  0  0  0
 16 46  1  0  0  0  0
 16 47  1  0  0  0  0
 17 18  1  0  0  0  0
 17 20  1  0  0  0  0
 17 48  1  0  0  0  0
 18 19  1  0  0  0  0
 18 49  1  0  0  0  0
 18 50  1  0  0  0  0
 19 51  1  0  0  0  0
 19 52  1  0  0  0  0
 20 21  2  0  0  0  0
 20 22  1  0  0  0  0
 22 23  1  0  0  0  0
 23 53  1  0  0  0  0
 23 54  1  0  0  0  0
 23 55  1  0  0  0  0
 24 25  1  0  0  0  0
 24 56  1  0  0  0  0
 25 26  2  0  0  0  0
 25 27  2  0  0  0  0
 25 28  1  0  0  0  0
 28 33  2  0  0  0  0
 28 29  1  0  0  0  0
 29 30  2  0  0  0  0
 29 36  1  0  0  0  0
 30 31  1  0  0  0  0
 30 57  1  0  0  0  0
 31 32  2  0  0  0  0
 31 35  1  0  0  0  0
 32 33  1  0  0  0  0
 32 58  1  0  0  0  0
 33 34  1  0  0  0  0
 34 59  1  0  0  0  0
 34 60  1  0  0  0  0
 34 61  1  0  0  0  0
 35 62  1  0  0  0  0
 35 63  1  0  0  0  0
 35 64  1  0  0  0  0
 36 65  1  0  0  0  0
 36 66  1  0  0  0  0
 36 67  1  0  0  0  0
 37 68  1  0  0  0  0
 37 69  1  0  0  0  0
 70 71  1  0  0  0  0
M  CHG  1  70   1
M  END
$$$$
ZINC03834142
  -OEChem-08230709403D

 72 76  0     1  0  0  0  0  0999 V2000
    2.2939   12.3245   -4.7823 H   0  0  0  0  0  0  0  0  0  0  0  0
    3.4164   10.6265   -4.8184 C   0  0  0  0  0  0  0  0  0  0  0  0
    3.5000    9.2562   -4.2633 C   0  0  0  0  0  0  0  0  0  0  0  0
    4.5497    8.4146   -4.6312 C   0  0  0  0  0  0  0  0  0  0  0  0
    4.6224    7.1390   -4.1103 C   0  0  0  0  0  0  0  0  0  0  0  0
    3.6597    6.6961   -3.2207 C   0  0  0  0  0  0  0  0  0  0  0  0
    2.6134    7.5242   -2.8563 C   0  0  0  0  0  0  0  0  0  0  0  0
    2.5299    8.8021   -3.3705 C   0  0  0  0  0  0  0  0  0  0  0  0
    1.5662    7.0321   -1.8909 C   0  0  0  0  0  0  0  0  0  0  0  0
    0.4268    6.3700   -2.6683 C   0  0  1  0  0  0  0  0  0  0  0  0
    0.8313    5.5854   -3.3078 H   0  0  0  0  0  0  0  0  0  0  0  0
   -0.5597    5.7699   -1.6999 C   0  0  0  0  0  0  0  0  0  0  0  0
   -1.7134    6.1438   -1.6999 O   0  0  0  0  0  0  0  0  0  0  0  0
   -0.1599    4.8176   -0.8340 N   0  0  0  0  0  0  0  0  0  0  0  0
    1.2446    4.4029   -0.7516 C   0  0  0  0  0  0  0  0  0  0  0  0
    1.3270    2.8984   -0.6871 C   0  0  0  0  0  0  0  0  0  0  0  0
    2.5743    2.3105   -0.8481 C   0  0  0  0  0  0  0  0  0  0  0  0
    2.7172    0.9402   -0.7751 C   0  0  0  0  0  0  0  0  0  0  0  0
    1.6094    0.1471   -0.5399 C   0  0  0  0  0  0  0  0  0  0  0  0
    0.3680    0.7293   -0.3911 C   0  0  0  0  0  0  0  0  0  0  0  0
    0.2212    2.1094   -0.4637 C   0  0  0  0  0  0  0  0  0  0  0  0
   -1.1672    2.6728   -0.3122 C   0  0  0  0  0  0  0  0  0  0  0  0
   -1.1157    4.1521    0.0666 C   0  0  2  0  0  0  0  0  0  0  0  0
   -0.7834    4.2568    1.0993 H   0  0  0  0  0  0  0  0  0  0  0  0
   -2.4820    4.7672   -0.0940 C   0  0  0  0  0  0  0  0  0  0  0  0
   -3.1277    4.5524   -1.0924 O   0  0  0  0  0  0  0  0  0  0  0  0
   -2.9817    5.5536    0.8722 O   0  0  0  0  0  0  0  0  0  0  0  0
   -4.3035    6.1119    0.6499 C   0  0  0  0  0  0  0  0  0  0  0  0
   -0.2486    7.3737   -3.4944 N   0  0  0  0  0  0  0  0  0  0  0  0
    0.1886    7.5720   -5.0793 S   0  0  0  0  0  0  0  0  0  0  0  0
   -0.6548    8.5852   -5.6095 O   0  0  0  0  0  0  0  0  0  0  0  0
    1.6059    7.6726   -5.1000 O   0  0  0  0  0  0  0  0  0  0  0  0
   -0.2227    6.0813   -5.9236 C   0  0  0  0  0  0  0  0  0  0  0  0
    0.7201    5.0584   -6.0094 C   0  0  0  0  0  0  0  0  0  0  0  0
    0.4325    3.8924   -6.6496 C   0  0  0  0  0  0  0  0  0  0  0  0
   -0.8289    3.7183   -7.2443 C   0  0  0  0  0  0  0  0  0  0  0  0
   -1.1598    2.5311   -7.9197 C   0  0  0  0  0  0  0  0  0  0  0  0
   -2.3914    2.3979   -8.4832 C   0  0  0  0  0  0  0  0  0  0  0  0
   -3.3322    3.4229   -8.4022 C   0  0  0  0  0  0  0  0  0  0  0  0
   -3.0469    4.5866   -7.7567 C   0  0  0  0  0  0  0  0  0  0  0  0
   -1.7856    4.7606   -7.1619 C   0  0  0  0  0  0  0  0  0  0  0  0
   -1.4544    5.9481   -6.4872 C   0  0  0  0  0  0  0  0  0  0  0  0
    4.3765   11.0723   -5.7004 N   0  0  0  0  0  0  0  0  0  0  0  0
    5.3042    8.7608   -5.3220 H   0  0  0  0  0  0  0  0  0  0  0  0
    5.4350    6.4866   -4.3941 H   0  0  0  0  0  0  0  0  0  0  0  0
    3.7233    5.6983   -2.8122 H   0  0  0  0  0  0  0  0  0  0  0  0
    1.7146    9.4491   -3.0823 H   0  0  0  0  0  0  0  0  0  0  0  0
    1.1749    7.8737   -1.3191 H   0  0  0  0  0  0  0  0  0  0  0  0
    2.0115    6.3064   -1.2104 H   0  0  0  0  0  0  0  0  0  0  0  0
    1.6970    4.8297    0.1435 H   0  0  0  0  0  0  0  0  0  0  0  0
    1.7799    4.7579   -1.6324 H   0  0  0  0  0  0  0  0  0  0  0  0
    3.4393    2.9305   -1.0317 H   0  0  0  0  0  0  0  0  0  0  0  0
    3.6903    0.4890   -0.9014 H   0  0  0  0  0  0  0  0  0  0  0  0
    1.7152   -0.9259   -0.4773 H   0  0  0  0  0  0  0  0  0  0  0  0
   -0.4967    0.1076   -0.2121 H   0  0  0  0  0  0  0  0  0  0  0  0
   -1.7036    2.5625   -1.2546 H   0  0  0  0  0  0  0  0  0  0  0  0
   -1.6944    2.1222    0.4669 H   0  0  0  0  0  0  0  0  0  0  0  0
   -4.2919    6.7259   -0.2507 H   0  0  0  0  0  0  0  0  0  0  0  0
   -5.0240    5.3030    0.5288 H   0  0  0  0  0  0  0  0  0  0  0  0
   -4.5869    6.7260    1.5046 H   0  0  0  0  0  0  0  0  0  0  0  0
   -0.9520    7.9221   -3.1131 H   0  0  0  0  0  0  0  0  0  0  0  0
    1.6918    5.1913   -5.5573 H   0  0  0  0  0  0  0  0  0  0  0  0
    1.1717    3.1069   -6.7049 H   0  0  0  0  0  0  0  0  0  0  0  0
   -0.4407    1.7284   -7.9904 H   0  0  0  0  0  0  0  0  0  0  0  0
   -2.6432    1.4844   -9.0014 H   0  0  0  0  0  0  0  0  0  0  0  0
   -4.3022    3.2919   -8.8588 H   0  0  0  0  0  0  0  0  0  0  0  0
   -3.7858    5.3723   -7.7023 H   0  0  0  0  0  0  0  0  0  0  0  0
   -2.1735    6.7507   -6.4159 H   0  0  0  0  0  0  0  0  0  0  0  0
    5.1071   10.4885   -5.9577 H   0  0  0  0  0  0  0  0  0  0  0  0
    4.3217   11.9700   -6.0640 H   0  0  0  0  0  0  0  0  0  0  0  0
    2.3952   11.3733   -4.4278 N   0  3  0  0  0  0  0  0  0  0  0  0
    1.7053   10.9951   -3.7681 H   0  0  0  0  0  0  0  0  0  0  0  0
  1 71  1  0  0  0  0
  2  3  1  0  0  0  0
  2 43  1  0  0  0  0
  2 71  2  0  0  0  0
  3  8  2  0  0  0  0
  3  4  1  0  0  0  0
  4  5  2  0  0  0  0
  4 44  1  0  0  0  0
  5  6  1  0  0  0  0
  5 45  1  0  0  0  0
  6  7  2  0  0  0  0
  6 46  1  0  0  0  0
  7  8  1  0  0  0  0
  7  9  1  0  0  0  0
  8 47  1  0  0  0  0
  9 10  1  0  0  0  0
  9 48  1  0  0  0  0
  9 49  1  0  0  0  0
 10 11  1  0  0  0  0
 10 12  1  0  0  0  0
 10 29  1  0  0  0  0
 12 13  2  0  0  0  0
 12 14  1  0  0  0  0
 14 23  1  0  0  0  0
 14 15  1  0  0  0  0
 15 16  1  0  0  0  0
 15 50  1  0  0  0  0
 15 51  1  0  0  0  0
 16 21  2  0  0  0  0
 16 17  1  0  0  0  0
 17 18  2  0  0  0  0
 17 52  1  0  0  0  0
 18 19  1  0  0  0  0
 18 53  1  0  0  0  0
 19 20  2  0  0  0  0
 19 54  1  0  0  0  0
 20 21  1  0  0  0  0
 20 55  1  0  0  0  0
 21 22  1  0  0  0  0
 22 23  1  0  0  0  0
 22 56  1  0  0  0  0
 22 57  1  0  0  0  0
 23 24  1  0  0  0  0
 23 25  1  0  0  0  0
 25 26  2  0  0  0  0
 25 27  1  0  0  0  0
 27 28  1  0  0  0  0
 28 58  1  0  0  0  0
 28 59  1  0  0  0  0
 28 60  1  0  0  0  0
 29 30  1  0  0  0  0
 29 61  1  0  0  0  0
 30 31  2  0  0  0  0
 30 32  2  0  0  0  0
 30 33  1  0  0  0  0
 33 42  2  0  0  0  0
 33 34  1  0  0  0  0
 34 35  2  0  0  0  0
 34 62  1  0  0  0  0
 35 36  1  0  0  0  0
 35 63  1  0  0  0  0
 36 41  2  0  0  0  0
 36 37  1  0  0  0  0
 37 38  2  0  0  0  0
 37 64  1  0  0  0  0
 38 39  1  0  0  0  0
 38 65  1  0  0  0  0
 39 40  2  0  0  0  0
 39 66  1  0  0  0  0
 40 41  1  0  0  0  0
 40 67  1  0  0  0  0
 41 42  1  0  0  0  0
 42 68  1  0  0  0  0
 43 69  1  0  0  0  0
 43 70  1  0  0  0  0
 71 72  1  0  0  0  0
M  CHG  1  71   1
M  END
$$$$
ZINC03834143
  -OEChem-08230709403D

 62 65  0     1  0  0  0  0  0999 V2000
   -3.1921   -4.1871   -0.8468 H   0  0  0  0  0  0  0  0  0  0  0  0
   -1.3805   -4.8510   -0.1972 C   0  0  0  0  0  0  0  0  0  0  0  0
    0.0752   -4.6032   -0.3083 C   0  0  0  0  0  0  0  0  0  0  0  0
    0.9770   -5.4023    0.3943 C   0  0  0  0  0  0  0  0  0  0  0  0
    2.3322   -5.1669    0.2864 C   0  0  0  0  0  0  0  0  0  0  0  0
    2.7975   -4.1441   -0.5209 C   0  0  0  0  0  0  0  0  0  0  0  0
    1.9078   -3.3447   -1.2155 C   0  0  0  0  0  0  0  0  0  0  0  0
    0.5499   -3.5703   -1.1158 C   0  0  0  0  0  0  0  0  0  0  0  0
    2.4226   -2.2288   -2.0879 C   0  0  0  0  0  0  0  0  0  0  0  0
    2.5282   -0.9443   -1.2635 C   0  0  1  0  0  0  0  0  0  0  0  0
    3.1579   -1.1227   -0.3919 H   0  0  0  0  0  0  0  0  0  0  0  0
    3.1363    0.1459   -2.1078 C   0  0  0  0  0  0  0  0  0  0  0  0
    2.4293    1.0058   -2.5892 O   0  0  0  0  0  0  0  0  0  0  0  0
    4.4658    0.1652   -2.3281 N   0  0  0  0  0  0  0  0  0  0  0  0
    5.0887    1.2829   -3.0503 C   0  0  0  0  0  0  0  0  0  0  0  0
    6.2289    1.8465   -2.1888 C   0  0  0  0  0  0  0  0  0  0  0  0
    7.1948    0.7155   -1.8280 C   0  0  0  0  0  0  0  0  0  0  0  0
    6.4559   -0.3480   -1.0125 C   0  0  0  0  0  0  0  0  0  0  0  0
    5.3189   -0.9337   -1.8558 C   0  0  0  0  0  0  0  0  0  0  0  0
    1.1919   -0.5342   -0.8248 N   0  0  0  0  0  0  0  0  0  0  0  0
    0.9859    0.1590    0.6649 S   0  0  0  0  0  0  0  0  0  0  0  0
    1.6876   -0.6568    1.5930 O   0  0  0  0  0  0  0  0  0  0  0  0
   -0.4010    0.4398    0.7939 O   0  0  0  0  0  0  0  0  0  0  0  0
    1.8138    1.7141    0.6348 C   0  0  0  0  0  0  0  0  0  0  0  0
    2.8746    1.9405    1.4575 C   0  0  0  0  0  0  0  0  0  0  0  0
    3.5460    3.1613    1.4428 C   0  0  0  0  0  0  0  0  0  0  0  0
    3.1527    4.1676    0.6148 C   0  0  0  0  0  0  0  0  0  0  0  0
    2.0579    3.9732   -0.2441 C   0  0  0  0  0  0  0  0  0  0  0  0
    1.3791    2.7290   -0.2341 C   0  0  0  0  0  0  0  0  0  0  0  0
    0.2836    2.5350   -1.0929 C   0  0  0  0  0  0  0  0  0  0  0  0
   -0.1098    3.5412   -1.9204 C   0  0  0  0  0  0  0  0  0  0  0  0
    0.5575    4.7649   -1.9299 C   0  0  0  0  0  0  0  0  0  0  0  0
    1.6221    4.9889   -1.1124 C   0  0  0  0  0  0  0  0  0  0  0  0
   -1.8466   -5.8723    0.6016 N   0  0  0  0  0  0  0  0  0  0  0  0
    0.6153   -6.2040    1.0211 H   0  0  0  0  0  0  0  0  0  0  0  0
    3.0315   -5.7848    0.8303 H   0  0  0  0  0  0  0  0  0  0  0  0
    3.8594   -3.9664   -0.6056 H   0  0  0  0  0  0  0  0  0  0  0  0
   -0.1436   -2.9481   -1.6619 H   0  0  0  0  0  0  0  0  0  0  0  0
    1.7357   -2.0714   -2.9195 H   0  0  0  0  0  0  0  0  0  0  0  0
    3.4064   -2.4944   -2.4746 H   0  0  0  0  0  0  0  0  0  0  0  0
    5.4866    0.9273   -4.0008 H   0  0  0  0  0  0  0  0  0  0  0  0
    4.3464    2.0604   -3.2307 H   0  0  0  0  0  0  0  0  0  0  0  0
    5.8189    2.2797   -1.2764 H   0  0  0  0  0  0  0  0  0  0  0  0
    6.7614    2.6147   -2.7495 H   0  0  0  0  0  0  0  0  0  0  0  0
    8.0196    1.1165   -1.2390 H   0  0  0  0  0  0  0  0  0  0  0  0
    7.5853    0.2665   -2.7412 H   0  0  0  0  0  0  0  0  0  0  0  0
    6.0436    0.1058   -0.1113 H   0  0  0  0  0  0  0  0  0  0  0  0
    7.1498   -1.1418   -0.7359 H   0  0  0  0  0  0  0  0  0  0  0  0
    4.7286   -1.6192   -1.2478 H   0  0  0  0  0  0  0  0  0  0  0  0
    5.7353   -1.4665   -2.7108 H   0  0  0  0  0  0  0  0  0  0  0  0
    0.4278   -0.6688   -1.4070 H   0  0  0  0  0  0  0  0  0  0  0  0
    3.2040    1.1603    2.1277 H   0  0  0  0  0  0  0  0  0  0  0  0
    4.3878    3.3133    2.1021 H   0  0  0  0  0  0  0  0  0  0  0  0
    3.6796    5.1103    0.6178 H   0  0  0  0  0  0  0  0  0  0  0  0
   -0.2435    1.5924   -1.0960 H   0  0  0  0  0  0  0  0  0  0  0  0
   -0.9519    3.3895   -2.5794 H   0  0  0  0  0  0  0  0  0  0  0  0
    0.2249    5.5469   -2.5965 H   0  0  0  0  0  0  0  0  0  0  0  0
    2.1292    5.9423   -1.1304 H   0  0  0  0  0  0  0  0  0  0  0  0
   -1.2212   -6.4290    1.0912 H   0  0  0  0  0  0  0  0  0  0  0  0
   -2.8001   -6.0346    0.6743 H   0  0  0  0  0  0  0  0  0  0  0  0
   -2.1813   -4.0564   -0.8904 N   0  3  0  0  0  0  0  0  0  0  0  0
   -1.7850   -3.3087   -1.4718 H   0  0  0  0  0  0  0  0  0  0  0  0
  1 61  1  0  0  0  0
  2  3  1  0  0  0  0
  2 34  1  0  0  0  0
  2 61  2  0  0  0  0
  3  8  2  0  0  0  0
  3  4  1  0  0  0  0
  4  5  2  0  0  0  0
  4 35  1  0  0  0  0
  5  6  1  0  0  0  0
  5 36  1  0  0  0  0
  6  7  2  0  0  0  0
  6 37  1  0  0  0  0
  7  8  1  0  0  0  0
  7  9  1  0  0  0  0
  8 38  1  0  0  0  0
  9 10  1  0  0  0  0
  9 39  1  0  0  0  0
  9 40  1  0  0  0  0
 10 11  1  0  0  0  0
 10 12  1  0  0  0  0
 10 20  1  0  0  0  0
 12 13  2  0  0  0  0
 12 14  1  0  0  0  0
 14 19  1  0  0  0  0
 14 15  1  0  0  0  0
 15 16  1  0  0  0  0
 15 41  1  0  0  0  0
 15 42  1  0  0  0  0
 16 17  1  0  0  0  0
 16 43  1  0  0  0  0
 16 44  1  0  0  0  0
 17 18  1  0  0  0  0
 17 45  1  0  0  0  0
 17 46  1  0  0  0  0
 18 19  1  0  0  0  0
 18 47  1  0  0  0  0
 18 48  1  0  0  0  0
 19 49  1  0  0  0  0
 19 50  1  0  0  0  0
 20 21  1  0  0  0  0
 20 51  1  0  0  0  0
 21 22  2  0  0  0  0
 21 23  2  0  0  0  0
 21 24  1  0  0  0  0
 24 29  2  0  0  0  0
 24 25  1  0  0  0  0
 25 26  2  0  0  0  0
 25 52  1  0  0  0  0
 26 27  1  0  0  0  0
 26 53  1  0  0  0  0
 27 28  2  0  0  0  0
 27 54  1  0  0  0  0
 28 33  1  0  0  0  0
 28 29  1  0  0  0  0
 29 30  1  0  0  0  0
 30 31  2  0  0  0  0
 30 55  1  0  0  0  0
 31 32  1  0  0  0  0
 31 56  1  0  0  0  0
 32 33  2  0  0  0  0
 32 57  1  0  0  0  0
 33 58  1  0  0  0  0
 34 59  1  0  0  0  0
 34 60  1  0  0  0  0
 61 62  1  0  0  0  0
M  CHG  1  61   1
M  END
$$$$
ZINC03834144
  -OEChem-08230709403D

 64 67  0     1  0  0  0  0  0999 V2000
   -3.7645   -8.1799   -3.1182 H   0  0  0  0  0  0  0  0  0  0  0  0
   -2.1625   -9.0265   -2.1902 C   0  0  0  0  0  0  0  0  0  0  0  0
   -1.0525   -8.7356   -1.2541 C   0  0  0  0  0  0  0  0  0  0  0  0
   -0.1487   -9.7394   -0.9063 C   0  0  0  0  0  0  0  0  0  0  0  0
    0.8835   -9.4624   -0.0337 C   0  0  0  0  0  0  0  0  0  0  0  0
    1.0232   -8.1917    0.4958 C   0  0  0  0  0  0  0  0  0  0  0  0
    0.1303   -7.1920    0.1543 C   0  0  0  0  0  0  0  0  0  0  0  0
   -0.9098   -7.4585   -0.7128 C   0  0  0  0  0  0  0  0  0  0  0  0
    0.2899   -5.8106    0.7351 C   0  0  0  0  0  0  0  0  0  0  0  0
    1.1842   -4.9725   -0.1806 C   0  0  1  0  0  0  0  0  0  0  0  0
    0.7705   -4.9697   -1.1890 H   0  0  0  0  0  0  0  0  0  0  0  0
    1.2513   -3.5594    0.3388 C   0  0  0  0  0  0  0  0  0  0  0  0
    2.2943   -3.1239    0.7785 O   0  0  0  0  0  0  0  0  0  0  0  0
    0.1522   -2.7797    0.3147 N   0  0  0  0  0  0  0  0  0  0  0  0
   -1.1484   -3.3316   -0.0886 C   0  0  0  0  0  0  0  0  0  0  0  0
   -1.7246   -2.4650   -1.2128 C   0  0  0  0  0  0  0  0  0  0  0  0
   -1.7762   -1.0066   -0.7518 C   0  0  0  0  0  0  0  0  0  0  0  0
   -0.3596   -0.5171   -0.4422 C   0  0  0  0  0  0  0  0  0  0  0  0
    0.2320   -1.3617    0.6907 C   0  0  2  0  0  0  0  0  0  0  0  0
   -0.3338   -1.1919    1.6067 H   0  0  0  0  0  0  0  0  0  0  0  0
    1.6728   -0.9770    0.9081 C   0  0  0  0  0  0  0  0  0  0  0  0
    2.4655   -1.0661    0.0007 O   0  0  0  0  0  0  0  0  0  0  0  0
    2.5314   -5.5475   -0.2071 N   0  0  0  0  0  0  0  0  0  0  0  0
    3.4256   -5.4981   -1.6001 S   0  0  0  0  0  0  0  0  0  0  0  0
    4.6765   -6.1026   -1.3014 O   0  0  0  0  0  0  0  0  0  0  0  0
    2.5814   -5.9687   -2.6416 O   0  0  0  0  0  0  0  0  0  0  0  0
    3.7558   -3.8024   -1.9471 C   0  0  0  0  0  0  0  0  0  0  0  0
    2.8671   -3.0782   -2.7397 C   0  0  0  0  0  0  0  0  0  0  0  0
    3.0898   -1.7657   -3.0222 C   0  0  0  0  0  0  0  0  0  0  0  0
    4.2381   -1.1311   -2.5184 C   0  0  0  0  0  0  0  0  0  0  0  0
    4.5052    0.2209   -2.7944 C   0  0  0  0  0  0  0  0  0  0  0  0
    5.6271    0.8023   -2.2891 C   0  0  0  0  0  0  0  0  0  0  0  0
    6.5186    0.0767   -1.5009 C   0  0  0  0  0  0  0  0  0  0  0  0
    6.2928   -1.2341   -1.2133 C   0  0  0  0  0  0  0  0  0  0  0  0
    5.1446   -1.8689   -1.7170 C   0  0  0  0  0  0  0  0  0  0  0  0
    4.8778   -3.2210   -1.4417 C   0  0  0  0  0  0  0  0  0  0  0  0
   -2.3040  -10.2907   -2.7194 N   0  0  0  0  0  0  0  0  0  0  0  0
   -0.2567  -10.7316   -1.3190 H   0  0  0  0  0  0  0  0  0  0  0  0
    1.5839  -10.2387    0.2364 H   0  0  0  0  0  0  0  0  0  0  0  0
    1.8328   -7.9795    1.1782 H   0  0  0  0  0  0  0  0  0  0  0  0
   -1.6090   -6.6783   -0.9753 H   0  0  0  0  0  0  0  0  0  0  0  0
    0.7462   -5.8821    1.7224 H   0  0  0  0  0  0  0  0  0  0  0  0
   -0.6882   -5.3371    0.8203 H   0  0  0  0  0  0  0  0  0  0  0  0
   -1.8283   -3.3244    0.7633 H   0  0  0  0  0  0  0  0  0  0  0  0
   -1.0195   -4.3537   -0.4446 H   0  0  0  0  0  0  0  0  0  0  0  0
   -2.7311   -2.8057   -1.4553 H   0  0  0  0  0  0  0  0  0  0  0  0
   -1.0902   -2.5452   -2.0955 H   0  0  0  0  0  0  0  0  0  0  0  0
   -2.3907   -0.9309    0.1454 H   0  0  0  0  0  0  0  0  0  0  0  0
   -2.2085   -0.3916   -1.5410 H   0  0  0  0  0  0  0  0  0  0  0  0
   -0.3947    0.5285   -0.1365 H   0  0  0  0  0  0  0  0  0  0  0  0
    0.2620   -0.6158   -1.3322 H   0  0  0  0  0  0  0  0  0  0  0  0
    2.8996   -5.9574    0.5913 H   0  0  0  0  0  0  0  0  0  0  0  0
    1.9863   -3.5647   -3.1320 H   0  0  0  0  0  0  0  0  0  0  0  0
    2.3904   -1.2160   -3.6348 H   0  0  0  0  0  0  0  0  0  0  0  0
    3.8232    0.7955   -3.4036 H   0  0  0  0  0  0  0  0  0  0  0  0
    5.8297    1.8415   -2.5023 H   0  0  0  0  0  0  0  0  0  0  0  0
    7.4020    0.5619   -1.1129 H   0  0  0  0  0  0  0  0  0  0  0  0
    6.9924   -1.7838   -0.6009 H   0  0  0  0  0  0  0  0  0  0  0  0
    5.5594   -3.7955   -0.8321 H   0  0  0  0  0  0  0  0  0  0  0  0
   -1.6765  -10.9902   -2.4789 H   0  0  0  0  0  0  0  0  0  0  0  0
   -3.0311  -10.4813   -3.3326 H   0  0  0  0  0  0  0  0  0  0  0  0
   -2.9845   -8.0293   -2.4783 N   0  3  0  0  0  0  0  0  0  0  0  0
   -2.8368   -7.1044   -2.0576 H   0  0  0  0  0  0  0  0  0  0  0  0
    2.0754   -0.5353    2.1101 O   0  5  0  0  0  0  0  0  0  0  0  0
  1 62  1  0  0  0  0
  2  3  1  0  0  0  0
  2 37  1  0  0  0  0
  2 62  2  0  0  0  0
  3  8  2  0  0  0  0
  3  4  1  0  0  0  0
  4  5  2  0  0  0  0
  4 38  1  0  0  0  0
  5  6  1  0  0  0  0
  5 39  1  0  0  0  0
  6  7  2  0  0  0  0
  6 40  1  0  0  0  0
  7  8  1  0  0  0  0
  7  9  1  0  0  0  0
  8 41  1  0  0  0  0
  9 10  1  0  0  0  0
  9 42  1  0  0  0  0
  9 43  1  0  0  0  0
 10 11  1  0  0  0  0
 10 12  1  0  0  0  0
 10 23  1  0  0  0  0
 12 13  2  0  0  0  0
 12 14  1  0  0  0  0
 14 19  1  0  0  0  0
 14 15  1  0  0  0  0
 15 16  1  0  0  0  0
 15 44  1  0  0  0  0
 15 45  1  0  0  0  0
 16 17  1  0  0  0  0
 16 46  1  0  0  0  0
 16 47  1  0  0  0  0
 17 18  1  0  0  0  0
 17 48  1  0  0  0  0
 17 49  1  0  0  0  0
 18 19  1  0  0  0  0
 18 50  1  0  0  0  0
 18 51  1  0  0  0  0
 19 20  1  0  0  0  0
 19 21  1  0  0  0  0
 21 22  2  0  0  0  0
 21 64  1  0  0  0  0
 23 24  1  0  0  0  0
 23 52  1  0  0  0  0
 24 25  2  0  0  0  0
 24 26  2  0  0  0  0
 24 27  1  0  0  0  0
 27 36  2  0  0  0  0
 27 28  1  0  0  0  0
 28 29  2  0  0  0  0
 28 53  1  0  0  0  0
 29 30  1  0  0  0  0
 29 54  1  0  0  0  0
 30 35  2  0  0  0  0
 30 31  1  0  0  0  0
 31 32  2  0  0  0  0
 31 55  1  0  0  0  0
 32 33  1  0  0  0  0
 32 56  1  0  0  0  0
 33 34  2  0  0  0  0
 33 57  1  0  0  0  0
 34 35  1  0  0  0  0
 34 58  1  0  0  0  0
 35 36  1  0  0  0  0
 36 59  1  0  0  0  0
 37 60  1  0  0  0  0
 37 61  1  0  0  0  0
 62 63  1  0  0  0  0
M  CHG  2  62   1  64  -1
M  END
$$$$
ZINC03834145
  -OEChem-08230709403D

 51 53  0     1  0  0  0  0  0999 V2000
    3.0154   13.4269   -1.0480 H   0  0  0  0  0  0  0  0  0  0  0  0
    0.9888   13.4520   -0.8554 C   0  0  0  0  0  0  0  0  0  0  0  0
   -0.2379   12.6972   -1.1996 C   0  0  0  0  0  0  0  0  0  0  0  0
   -1.4876   13.1746   -0.8051 C   0  0  0  0  0  0  0  0  0  0  0  0
   -2.6269   12.4672   -1.1291 C   0  0  0  0  0  0  0  0  0  0  0  0
   -2.5320   11.2892   -1.8487 C   0  0  0  0  0  0  0  0  0  0  0  0
   -1.2950   10.8078   -2.2378 C   0  0  0  0  0  0  0  0  0  0  0  0
   -0.1482   11.5065   -1.9197 C   0  0  0  0  0  0  0  0  0  0  0  0
   -1.1999    9.5207   -3.0160 C   0  0  0  0  0  0  0  0  0  0  0  0
   -1.0602    8.3467   -2.0450 C   0  0  1  0  0  0  0  0  0  0  0  0
   -1.8852    8.3640   -1.3328 H   0  0  0  0  0  0  0  0  0  0  0  0
   -1.0885    7.0516   -2.8150 C   0  0  0  0  0  0  0  0  0  0  0  0
   -0.1445    6.2990   -2.7664 O   0  0  0  0  0  0  0  0  0  0  0  0
   -2.1624    6.7343   -3.5551 O   0  0  0  0  0  0  0  0  0  0  0  0
   -2.1202    5.4713   -4.2702 C   0  0  0  0  0  0  0  0  0  0  0  0
    0.2100    8.4581   -1.3235 N   0  0  0  0  0  0  0  0  0  0  0  0
    0.3098    7.9743    0.2571 S   0  0  0  0  0  0  0  0  0  0  0  0
   -0.7879    8.5707    0.9344 O   0  0  0  0  0  0  0  0  0  0  0  0
    1.6567    8.1800    0.6605 O   0  0  0  0  0  0  0  0  0  0  0  0
    0.0351    6.2341    0.2876 C   0  0  0  0  0  0  0  0  0  0  0  0
    1.1187    5.3659    0.1660 C   0  0  0  0  0  0  0  0  0  0  0  0
    0.9411    4.0167    0.1858 C   0  0  0  0  0  0  0  0  0  0  0  0
   -0.3528    3.4876    0.3306 C   0  0  0  0  0  0  0  0  0  0  0  0
   -0.5756    2.1002    0.3549 C   0  0  0  0  0  0  0  0  0  0  0  0
   -1.8427    1.6241    0.4963 C   0  0  0  0  0  0  0  0  0  0  0  0
   -2.9268    2.4924    0.6123 C   0  0  0  0  0  0  0  0  0  0  0  0
   -2.7485    3.8415    0.5988 C   0  0  0  0  0  0  0  0  0  0  0  0
   -1.4545    4.3705    0.4541 C   0  0  0  0  0  0  0  0  0  0  0  0
   -1.2319    5.7579    0.4290 C   0  0  0  0  0  0  0  0  0  0  0  0
    0.8970   14.6283   -0.1439 N   0  0  0  0  0  0  0  0  0  0  0  0
   -1.5633   14.0965   -0.2475 H   0  0  0  0  0  0  0  0  0  0  0  0
   -3.5952   12.8356   -0.8239 H   0  0  0  0  0  0  0  0  0  0  0  0
   -3.4269   10.7411   -2.1038 H   0  0  0  0  0  0  0  0  0  0  0  0
    0.8168   11.1317   -2.2275 H   0  0  0  0  0  0  0  0  0  0  0  0
   -0.3295    9.5558   -3.6713 H   0  0  0  0  0  0  0  0  0  0  0  0
   -2.1010    9.3911   -3.6154 H   0  0  0  0  0  0  0  0  0  0  0  0
   -1.2779    5.4734   -4.9620 H   0  0  0  0  0  0  0  0  0  0  0  0
   -2.0035    4.6543   -3.5581 H   0  0  0  0  0  0  0  0  0  0  0  0
   -3.0477    5.3379   -4.8272 H   0  0  0  0  0  0  0  0  0  0  0  0
    0.9926    8.8153   -1.7717 H   0  0  0  0  0  0  0  0  0  0  0  0
    2.1140    5.7698    0.0549 H   0  0  0  0  0  0  0  0  0  0  0  0
    1.7902    3.3561    0.0901 H   0  0  0  0  0  0  0  0  0  0  0  0
    0.2543    1.4155    0.2616 H   0  0  0  0  0  0  0  0  0  0  0  0
   -2.0111    0.5575    0.5143 H   0  0  0  0  0  0  0  0  0  0  0  0
   -3.9227    2.0885    0.7189 H   0  0  0  0  0  0  0  0  0  0  0  0
   -3.5975    4.5022    0.6935 H   0  0  0  0  0  0  0  0  0  0  0  0
   -2.0619    6.4426    0.5220 H   0  0  0  0  0  0  0  0  0  0  0  0
    0.0289   14.9619    0.1318 H   0  0  0  0  0  0  0  0  0  0  0  0
    1.7005   15.1227    0.0816 H   0  0  0  0  0  0  0  0  0  0  0  0
    2.1424   12.9438   -1.2605 N   0  3  0  0  0  0  0  0  0  0  0  0
    2.1583   12.0634   -1.7887 H   0  0  0  0  0  0  0  0  0  0  0  0
  1 50  1  0  0  0  0
  2  3  1  0  0  0  0
  2 30  1  0  0  0  0
  2 50  2  0  0  0  0
  3  8  2  0  0  0  0
  3  4  1  0  0  0  0
  4  5  2  0  0  0  0
  4 31  1  0  0  0  0
  5  6  1  0  0  0  0
  5 32  1  0  0  0  0
  6  7  2  0  0  0  0
  6 33  1  0  0  0  0
  7  8  1  0  0  0  0
  7  9  1  0  0  0  0
  8 34  1  0  0  0  0
  9 10  1  0  0  0  0
  9 35  1  0  0  0  0
  9 36  1  0  0  0  0
 10 11  1  0  0  0  0
 10 12  1  0  0  0  0
 10 16  1  0  0  0  0
 12 13  2  0  0  0  0
 12 14  1  0  0  0  0
 14 15  1  0  0  0  0
 15 37  1  0  0  0  0
 15 38  1  0  0  0  0
 15 39  1  0  0  0  0
 16 17  1  0  0  0  0
 16 40  1  0  0  0  0
 17 18  2  0  0  0  0
 17 19  2  0  0  0  0
 17 20  1  0  0  0  0
 20 29  2  0  0  0  0
 20 21  1  0  0  0  0
 21 22  2  0  0  0  0
 21 41  1  0  0  0  0
 22 23  1  0  0  0  0
 22 42  1  0  0  0  0
 23 28  2  0  0  0  0
 23 24  1  0  0  0  0
 24 25  2  0  0  0  0
 24 43  1  0  0  0  0
 25 26  1  0  0  0  0
 25 44  1  0  0  0  0
 26 27  2  0  0  0  0
 26 45  1  0  0  0  0
 27 28  1  0  0  0  0
 27 46  1  0  0  0  0
 28 29  1  0  0  0  0
 29 47  1  0  0  0  0
 30 48  1  0  0  0  0
 30 49  1  0  0  0  0
 50 51  1  0  0  0  0
M  CHG  1  50   1
M  END
$$$$
ZINC03834146
  -OEChem-08230709403D

 69 73  0     1  0  0  0  0  0999 V2000
    3.4710   -9.7606   -0.3089 H   0  0  0  0  0  0  0  0  0  0  0  0
    1.4353   -9.7632   -0.2872 C   0  0  0  0  0  0  0  0  0  0  0  0
    0.2545   -8.8703   -0.3230 C   0  0  0  0  0  0  0  0  0  0  0  0
   -1.0317   -9.4083   -0.2807 C   0  0  0  0  0  0  0  0  0  0  0  0
   -2.1279   -8.5713   -0.3148 C   0  0  0  0  0  0  0  0  0  0  0  0
   -1.9533   -7.2006   -0.3851 C   0  0  0  0  0  0  0  0  0  0  0  0
   -0.6805   -6.6614   -0.4330 C   0  0  0  0  0  0  0  0  0  0  0  0
    0.4240   -7.4884   -0.3995 C   0  0  0  0  0  0  0  0  0  0  0  0
   -0.4991   -5.1677   -0.5157 C   0  0  0  0  0  0  0  0  0  0  0  0
   -0.4525   -4.7402   -1.9841 C   0  0  1  0  0  0  0  0  0  0  0  0
   -1.3981   -4.9896   -2.4654 H   0  0  0  0  0  0  0  0  0  0  0  0
   -0.2235   -3.2530   -2.0672 C   0  0  0  0  0  0  0  0  0  0  0  0
    0.8751   -2.8235   -2.3496 O   0  0  0  0  0  0  0  0  0  0  0  0
   -1.2394   -2.4002   -1.8277 N   0  0  0  0  0  0  0  0  0  0  0  0
   -2.6531   -2.7648   -1.5726 C   0  0  0  0  0  0  0  0  0  0  0  0
   -3.4062   -1.4511   -1.2261 C   0  0  0  0  0  0  0  0  0  0  0  0
   -2.2575   -0.5458   -0.7548 C   0  0  1  0  0  0  0  0  0  0  0  0
   -1.9715   -0.7766    0.2714 H   0  0  0  0  0  0  0  0  0  0  0  0
   -1.1393   -0.9459   -1.7555 C   0  0  1  0  0  0  0  0  0  0  0  0
   -1.3724   -0.5313   -2.7362 H   0  0  0  0  0  0  0  0  0  0  0  0
    0.1557   -0.3336   -1.2647 C   0  0  0  0  0  0  0  0  0  0  0  0
   -0.0051    1.1943   -1.3315 C   0  0  0  0  0  0  0  0  0  0  0  0
   -1.2019    1.6641   -0.5100 C   0  0  0  0  0  0  0  0  0  0  0  0
   -2.4926    0.9445   -0.9329 C   0  0  0  0  0  0  0  0  0  0  0  0
    0.6405   -5.4412   -2.6624 N   0  0  0  0  0  0  0  0  0  0  0  0
    0.3373   -6.8429   -3.4905 S   0  0  0  0  0  0  0  0  0  0  0  0
    1.5750   -7.2594   -4.0509 O   0  0  0  0  0  0  0  0  0  0  0  0
   -0.4228   -7.6716   -2.6218 O   0  0  0  0  0  0  0  0  0  0  0  0
   -0.7149   -6.4318   -4.8427 C   0  0  0  0  0  0  0  0  0  0  0  0
   -2.0977   -6.4781   -4.6753 C   0  0  0  0  0  0  0  0  0  0  0  0
   -2.9383   -6.1613   -5.6976 C   0  0  0  0  0  0  0  0  0  0  0  0
   -2.4074   -5.7932   -6.9457 C   0  0  0  0  0  0  0  0  0  0  0  0
   -3.2437   -5.4651   -8.0264 C   0  0  0  0  0  0  0  0  0  0  0  0
   -2.6940   -5.1136   -9.2207 C   0  0  0  0  0  0  0  0  0  0  0  0
   -1.3112   -5.0727   -9.3899 C   0  0  0  0  0  0  0  0  0  0  0  0
   -0.4705   -5.3834   -8.3657 C   0  0  0  0  0  0  0  0  0  0  0  0
   -1.0013   -5.7515   -7.1177 C   0  0  0  0  0  0  0  0  0  0  0  0
   -0.1650   -6.0795   -6.0368 C   0  0  0  0  0  0  0  0  0  0  0  0
    1.2648  -11.1284   -0.2115 N   0  0  0  0  0  0  0  0  0  0  0  0
   -1.1691  -10.4779   -0.2210 H   0  0  0  0  0  0  0  0  0  0  0  0
   -3.1243   -8.9867   -0.2820 H   0  0  0  0  0  0  0  0  0  0  0  0
   -2.8145   -6.5492   -0.4071 H   0  0  0  0  0  0  0  0  0  0  0  0
    1.4174   -7.0660   -0.4322 H   0  0  0  0  0  0  0  0  0  0  0  0
    0.4333   -4.8872   -0.0259 H   0  0  0  0  0  0  0  0  0  0  0  0
   -1.3336   -4.6723   -0.0194 H   0  0  0  0  0  0  0  0  0  0  0  0
   -2.7123   -3.4589   -0.7343 H   0  0  0  0  0  0  0  0  0  0  0  0
   -3.0867   -3.2173   -2.4644 H   0  0  0  0  0  0  0  0  0  0  0  0
   -4.1276   -1.6147   -0.4255 H   0  0  0  0  0  0  0  0  0  0  0  0
   -3.8933   -1.0358   -2.1083 H   0  0  0  0  0  0  0  0  0  0  0  0
    0.3451   -0.6416   -0.2364 H   0  0  0  0  0  0  0  0  0  0  0  0
    0.9805   -0.6489   -1.9037 H   0  0  0  0  0  0  0  0  0  0  0  0
    0.8991    1.6653   -0.9460 H   0  0  0  0  0  0  0  0  0  0  0  0
   -0.1463    1.4929   -2.3703 H   0  0  0  0  0  0  0  0  0  0  0  0
   -1.3305    2.7375   -0.6495 H   0  0  0  0  0  0  0  0  0  0  0  0
   -1.0113    1.4634    0.5441 H   0  0  0  0  0  0  0  0  0  0  0  0
   -2.7138    1.1629   -1.9777 H   0  0  0  0  0  0  0  0  0  0  0  0
   -3.3210    1.2674   -0.3023 H   0  0  0  0  0  0  0  0  0  0  0  0
    1.5418   -5.0844   -2.6264 H   0  0  0  0  0  0  0  0  0  0  0  0
   -2.5084   -6.7652   -3.7185 H   0  0  0  0  0  0  0  0  0  0  0  0
   -4.0079   -6.1972   -5.5520 H   0  0  0  0  0  0  0  0  0  0  0  0
   -4.3171   -5.4918   -7.9098 H   0  0  0  0  0  0  0  0  0  0  0  0
   -3.3390   -4.8623  -10.0498 H   0  0  0  0  0  0  0  0  0  0  0  0
   -0.9006   -4.7905  -10.3481 H   0  0  0  0  0  0  0  0  0  0  0  0
    0.5991   -5.3470   -8.5114 H   0  0  0  0  0  0  0  0  0  0  0  0
    0.9084   -6.0517   -6.1530 H   0  0  0  0  0  0  0  0  0  0  0  0
    0.3712  -11.5045   -0.1817 H   0  0  0  0  0  0  0  0  0  0  0  0
    2.0382  -11.7132   -0.1881 H   0  0  0  0  0  0  0  0  0  0  0  0
    2.6271   -9.1879   -0.3310 N   0  3  0  0  0  0  0  0  0  0  0  0
    2.7018   -8.1654   -0.3871 H   0  0  0  0  0  0  0  0  0  0  0  0
  1 68  1  0  0  0  0
  2  3  1  0  0  0  0
  2 39  1  0  0  0  0
  2 68  2  0  0  0  0
  3  8  2  0  0  0  0
  3  4  1  0  0  0  0
  4  5  2  0  0  0  0
  4 40  1  0  0  0  0
  5  6  1  0  0  0  0
  5 41  1  0  0  0  0
  6  7  2  0  0  0  0
  6 42  1  0  0  0  0
  7  8  1  0  0  0  0
  7  9  1  0  0  0  0
  8 43  1  0  0  0  0
  9 10  1  0  0  0  0
  9 44  1  0  0  0  0
  9 45  1  0  0  0  0
 10 11  1  0  0  0  0
 10 12  1  0  0  0  0
 10 25  1  0  0  0  0
 12 13  2  0  0  0  0
 12 14  1  0  0  0  0
 14 19  1  0  0  0  0
 14 15  1  0  0  0  0
 15 16  1  0  0  0  0
 15 46  1  0  0  0  0
 15 47  1  0  0  0  0
 16 17  1  0  0  0  0
 16 48  1  0  0  0  0
 16 49  1  0  0  0  0
 17 18  1  0  0  0  0
 17 24  1  0  0  0  0
 17 19  1  0  0  0  0
 19 20  1  0  0  0  0
 19 21  1  0  0  0  0
 21 22  1  0  0  0  0
 21 50  1  0  0  0  0
 21 51  1  0  0  0  0
 22 23  1  0  0  0  0
 22 52  1  0  0  0  0
 22 53  1  0  0  0  0
 23 24  1  0  0  0  0
 23 54  1  0  0  0  0
 23 55  1  0  0  0  0
 24 56  1  0  0  0  0
 24 57  1  0  0  0  0
 25 26  1  0  0  0  0
 25 58  1  0  0  0  0
 26 27  2  0  0  0  0
 26 28  2  0  0  0  0
 26 29  1  0  0  0  0
 29 38  2  0  0  0  0
 29 30  1  0  0  0  0
 30 31  2  0  0  0  0
 30 59  1  0  0  0  0
 31 32  1  0  0  0  0
 31 60  1  0  0  0  0
 32 37  2  0  0  0  0
 32 33  1  0  0  0  0
 33 34  2  0  0  0  0
 33 61  1  0  0  0  0
 34 35  1  0  0  0  0
 34 62  1  0  0  0  0
 35 36  2  0  0  0  0
 35 63  1  0  0  0  0
 36 37  1  0  0  0  0
 36 64  1  0  0  0  0
 37 38  1  0  0  0  0
 38 65  1  0  0  0  0
 39 66  1  0  0  0  0
 39 67  1  0  0  0  0
 68 69  1  0  0  0  0
M  CHG  1  68   1
M  END
$$$$
ZINC03834147
  -OEChem-08230709403D

 64 67  0     1  0  0  0  0  0999 V2000
    6.7597   -1.3340    0.2337 H   0  0  0  0  0  0  0  0  0  0  0  0
    5.0973   -0.2958    0.7843 C   0  0  0  0  0  0  0  0  0  0  0  0
    3.6174   -0.3424    0.7642 C   0  0  0  0  0  0  0  0  0  0  0  0
    2.8763    0.7028    1.3152 C   0  0  0  0  0  0  0  0  0  0  0  0
    1.4977    0.6537    1.2935 C   0  0  0  0  0  0  0  0  0  0  0  0
    0.8501   -0.4296    0.7264 C   0  0  0  0  0  0  0  0  0  0  0  0
    1.5796   -1.4690    0.1779 C   0  0  0  0  0  0  0  0  0  0  0  0
    2.9591   -1.4313    0.1937 C   0  0  0  0  0  0  0  0  0  0  0  0
    0.8665   -2.6448   -0.4387 C   0  0  0  0  0  0  0  0  0  0  0  0
    0.6219   -2.3712   -1.9240 C   0  0  1  0  0  0  0  0  0  0  0  0
    1.5548   -2.0611   -2.3947 H   0  0  0  0  0  0  0  0  0  0  0  0
    0.1163   -3.6254   -2.5892 C   0  0  0  0  0  0  0  0  0  0  0  0
   -1.0306   -3.6850   -2.9788 O   0  0  0  0  0  0  0  0  0  0  0  0
    0.9388   -4.6807   -2.7511 N   0  0  0  0  0  0  0  0  0  0  0  0
    2.3531   -4.5943   -2.3622 C   0  0  0  0  0  0  0  0  0  0  0  0
    3.2218   -5.0007   -3.5512 C   0  0  0  0  0  0  0  0  0  0  0  0
    2.7893   -6.3823   -4.0475 C   0  0  0  0  0  0  0  0  0  0  0  0
    1.3312   -6.3271   -4.5090 C   0  0  0  0  0  0  0  0  0  0  0  0
    0.4398   -5.9376   -3.3257 C   0  0  0  0  0  0  0  0  0  0  0  0
    3.6790   -6.8048   -5.2184 C   0  0  0  0  0  0  0  0  0  0  0  0
   -0.3746   -1.3069   -2.0670 N   0  0  0  0  0  0  0  0  0  0  0  0
    0.0680    0.1643   -2.6849 S   0  0  0  0  0  0  0  0  0  0  0  0
   -1.1053    0.9656   -2.7057 O   0  0  0  0  0  0  0  0  0  0  0  0
    1.2465    0.5568   -1.9947 O   0  0  0  0  0  0  0  0  0  0  0  0
    0.5310   -0.0944   -4.3652 C   0  0  0  0  0  0  0  0  0  0  0  0
   -0.2779    0.3376   -5.3710 C   0  0  0  0  0  0  0  0  0  0  0  0
    0.0690    0.1434   -6.7062 C   0  0  0  0  0  0  0  0  0  0  0  0
    1.2291   -0.4853   -7.0424 C   0  0  0  0  0  0  0  0  0  0  0  0
    2.0878   -0.9442   -6.0309 C   0  0  0  0  0  0  0  0  0  0  0  0
    1.7398   -0.7426   -4.6721 C   0  0  0  0  0  0  0  0  0  0  0  0
    2.5517   -1.1824   -3.7053 N   0  0  0  0  0  0  0  0  0  0  0  0
    3.6778   -1.7919   -3.9859 C   0  0  0  0  0  0  0  0  0  0  0  0
    4.0819   -2.0170   -5.3002 C   0  0  0  0  0  0  0  0  0  0  0  0
    3.2964   -1.5984   -6.3361 C   0  0  0  0  0  0  0  0  0  0  0  0
    5.7450    0.7815    1.3488 N   0  0  0  0  0  0  0  0  0  0  0  0
    3.3807    1.5492    1.7578 H   0  0  0  0  0  0  0  0  0  0  0  0
    0.9227    1.4645    1.7158 H   0  0  0  0  0  0  0  0  0  0  0  0
   -0.2292   -0.4637    0.7117 H   0  0  0  0  0  0  0  0  0  0  0  0
    3.5275   -2.2435   -0.2346 H   0  0  0  0  0  0  0  0  0  0  0  0
    1.4798   -3.5393   -0.3302 H   0  0  0  0  0  0  0  0  0  0  0  0
   -0.0883   -2.7956    0.0651 H   0  0  0  0  0  0  0  0  0  0  0  0
    2.5900   -3.5710   -2.0712 H   0  0  0  0  0  0  0  0  0  0  0  0
    2.5440   -5.2677   -1.5266 H   0  0  0  0  0  0  0  0  0  0  0  0
    4.2672   -5.0351   -3.2445 H   0  0  0  0  0  0  0  0  0  0  0  0
    3.1011   -4.2721   -4.3528 H   0  0  0  0  0  0  0  0  0  0  0  0
    2.8869   -7.1056   -3.2380 H   0  0  0  0  0  0  0  0  0  0  0  0
    1.0311   -7.3055   -4.8840 H   0  0  0  0  0  0  0  0  0  0  0  0
    1.2283   -5.5859   -5.3015 H   0  0  0  0  0  0  0  0  0  0  0  0
    0.4715   -6.7226   -2.5702 H   0  0  0  0  0  0  0  0  0  0  0  0
   -0.5853   -5.8003   -3.6700 H   0  0  0  0  0  0  0  0  0  0  0  0
    3.5812   -6.0819   -6.0282 H   0  0  0  0  0  0  0  0  0  0  0  0
    4.7175   -6.8442   -4.8899 H   0  0  0  0  0  0  0  0  0  0  0  0
    3.3719   -7.7893   -5.5712 H   0  0  0  0  0  0  0  0  0  0  0  0
   -1.2937   -1.4640   -1.7996 H   0  0  0  0  0  0  0  0  0  0  0  0
   -1.2038    0.8388   -5.1300 H   0  0  0  0  0  0  0  0  0  0  0  0
   -0.5909    0.4964   -7.4850 H   0  0  0  0  0  0  0  0  0  0  0  0
    1.4871   -0.6303   -8.0811 H   0  0  0  0  0  0  0  0  0  0  0  0
    4.3093   -2.1282   -3.1770 H   0  0  0  0  0  0  0  0  0  0  0  0
    5.0156   -2.5218   -5.4997 H   0  0  0  0  0  0  0  0  0  0  0  0
    3.5940   -1.7648   -7.3608 H   0  0  0  0  0  0  0  0  0  0  0  0
    5.2316    1.5093    1.7328 H   0  0  0  0  0  0  0  0  0  0  0  0
    6.7144    0.8120    1.3619 H   0  0  0  0  0  0  0  0  0  0  0  0
    5.7397   -1.3198    0.2441 N   0  3  0  0  0  0  0  0  0  0  0  0
    5.2112   -2.0996   -0.1644 H   0  0  0  0  0  0  0  0  0  0  0  0
  1 63  1  0  0  0  0
  2  3  1  0  0  0  0
  2 35  1  0  0  0  0
  2 63  2  0  0  0  0
  3  8  2  0  0  0  0
  3  4  1  0  0  0  0
  4  5  2  0  0  0  0
  4 36  1  0  0  0  0
  5  6  1  0  0  0  0
  5 37  1  0  0  0  0
  6  7  2  0  0  0  0
  6 38  1  0  0  0  0
  7  8  1  0  0  0  0
  7  9  1  0  0  0  0
  8 39  1  0  0  0  0
  9 10  1  0  0  0  0
  9 40  1  0  0  0  0
  9 41  1  0  0  0  0
 10 11  1  0  0  0  0
 10 12  1  0  0  0  0
 10 21  1  0  0  0  0
 12 13  2  0  0  0  0
 12 14  1  0  0  0  0
 14 19  1  0  0  0  0
 14 15  1  0  0  0  0
 15 16  1  0  0  0  0
 15 42  1  0  0  0  0
 15 43  1  0  0  0  0
 16 17  1  0  0  0  0
 16 44  1  0  0  0  0
 16 45  1  0  0  0  0
 17 18  1  0  0  0  0
 17 20  1  0  0  0  0
 17 46  1  0  0  0  0
 18 19  1  0  0  0  0
 18 47  1  0  0  0  0
 18 48  1  0  0  0  0
 19 49  1  0  0  0  0
 19 50  1  0  0  0  0
 20 51  1  0  0  0  0
 20 52  1  0  0  0  0
 20 53  1  0  0  0  0
 21 22  1  0  0  0  0
 21 54  1  0  0  0  0
 22 23  2  0  0  0  0
 22 24  2  0  0  0  0
 22 25  1  0  0  0  0
 25 30  2  0  0  0  0
 25 26  1  0  0  0  0
 26 27  2  0  0  0  0
 26 55  1  0  0  0  0
 27 28  1  0  0  0  0
 27 56  1  0  0  0  0
 28 29  2  0  0  0  0
 28 57  1  0  0  0  0
 29 34  1  0  0  0  0
 29 30  1  0  0  0  0
 30 31  1  0  0  0  0
 31 32  2  0  0  0  0
 32 33  1  0  0  0  0
 32 58  1  0  0  0  0
 33 34  2  0  0  0  0
 33 59  1  0  0  0  0
 34 60  1  0  0  0  0
 35 61  1  0  0  0  0
 35 62  1  0  0  0  0
 63 64  1  0  0  0  0
M  CHG  1  63   1
M  END
$$$$
ZINC03834148
  -OEChem-08230709403D

 56 58  0     1  0  0  0  0  0999 V2000
    4.0061    1.8564    2.2521 H   0  0  0  0  0  0  0  0  0  0  0  0
    2.2664    2.3677    1.3265 C   0  0  0  0  0  0  0  0  0  0  0  0
    1.1011    1.8009    0.6099 C   0  0  0  0  0  0  0  0  0  0  0  0
    0.0959    2.6416    0.1325 C   0  0  0  0  0  0  0  0  0  0  0  0
   -0.9874    2.1075   -0.5345 C   0  0  0  0  0  0  0  0  0  0  0  0
   -1.0776    0.7407   -0.7303 C   0  0  0  0  0  0  0  0  0  0  0  0
   -0.0836   -0.0981   -0.2596 C   0  0  0  0  0  0  0  0  0  0  0  0
    1.0048    0.4244    0.4091 C   0  0  0  0  0  0  0  0  0  0  0  0
   -0.1892   -1.5855   -0.4779 C   0  0  0  0  0  0  0  0  0  0  0  0
    0.4804   -1.9551   -1.8031 C   0  0  1  0  0  0  0  0  0  0  0  0
    1.5082   -1.5923   -1.8046 H   0  0  0  0  0  0  0  0  0  0  0  0
    0.4763   -3.4532   -1.9672 C   0  0  0  0  0  0  0  0  0  0  0  0
   -0.4297   -3.9954   -2.5639 O   0  0  0  0  0  0  0  0  0  0  0  0
    1.4795   -4.1904   -1.4508 N   0  0  0  0  0  0  0  0  0  0  0  0
    2.5813   -3.6779   -0.6233 C   0  0  0  0  0  0  0  0  0  0  0  0
    3.4959   -4.8742   -0.2860 C   0  0  0  0  0  0  0  0  0  0  0  0
    3.1724   -5.8859   -1.4169 C   0  0  0  0  0  0  0  0  0  0  0  0
    1.6570   -5.6432   -1.6274 C   0  0  0  0  0  0  0  0  0  0  0  0
   -0.2560   -1.3406   -2.9104 N   0  0  0  0  0  0  0  0  0  0  0  0
    0.5582   -0.8001   -4.2474 S   0  0  0  0  0  0  0  0  0  0  0  0
   -0.4217   -0.2889   -5.1405 O   0  0  0  0  0  0  0  0  0  0  0  0
    1.6410   -0.0121   -3.7724 O   0  0  0  0  0  0  0  0  0  0  0  0
    1.2671   -2.2102   -5.0309 C   0  0  0  0  0  0  0  0  0  0  0  0
    2.5389   -2.6269   -4.6848 C   0  0  0  0  0  0  0  0  0  0  0  0
    3.0932   -3.7357   -5.2964 C   0  0  0  0  0  0  0  0  0  0  0  0
    2.3796   -4.4220   -6.2610 C   0  0  0  0  0  0  0  0  0  0  0  0
    1.1098   -4.0025   -6.6106 C   0  0  0  0  0  0  0  0  0  0  0  0
    0.5536   -2.8963   -5.9959 C   0  0  0  0  0  0  0  0  0  0  0  0
    2.9859   -5.6281   -6.9311 C   0  0  0  0  0  0  0  0  0  0  0  0
    2.3588    3.7282    1.5235 N   0  0  0  0  0  0  0  0  0  0  0  0
    0.1654    3.7086    0.2844 H   0  0  0  0  0  0  0  0  0  0  0  0
   -1.7642    2.7580   -0.9085 H   0  0  0  0  0  0  0  0  0  0  0  0
   -1.9274    0.3273   -1.2529 H   0  0  0  0  0  0  0  0  0  0  0  0
    1.7801   -0.2316    0.7764 H   0  0  0  0  0  0  0  0  0  0  0  0
    0.3081   -2.1087    0.3388 H   0  0  0  0  0  0  0  0  0  0  0  0
   -1.2397   -1.8746   -0.5085 H   0  0  0  0  0  0  0  0  0  0  0  0
    3.1419   -2.9251   -1.1775 H   0  0  0  0  0  0  0  0  0  0  0  0
    2.1850   -3.2460    0.2956 H   0  0  0  0  0  0  0  0  0  0  0  0
    3.2457   -5.2927    0.6889 H   0  0  0  0  0  0  0  0  0  0  0  0
    4.5441   -4.5776   -0.3221 H   0  0  0  0  0  0  0  0  0  0  0  0
    3.3628   -6.9090   -1.0923 H   0  0  0  0  0  0  0  0  0  0  0  0
    3.7346   -5.6538   -2.3215 H   0  0  0  0  0  0  0  0  0  0  0  0
    1.0783   -6.1895   -0.8826 H   0  0  0  0  0  0  0  0  0  0  0  0
    1.3610   -5.9421   -2.6330 H   0  0  0  0  0  0  0  0  0  0  0  0
   -1.2205   -1.2502   -2.8605 H   0  0  0  0  0  0  0  0  0  0  0  0
    3.0979   -2.0882   -3.9340 H   0  0  0  0  0  0  0  0  0  0  0  0
    4.0853   -4.0637   -5.0229 H   0  0  0  0  0  0  0  0  0  0  0  0
    0.5523   -4.5389   -7.3642 H   0  0  0  0  0  0  0  0  0  0  0  0
   -0.4384   -2.5684   -6.2693 H   0  0  0  0  0  0  0  0  0  0  0  0
    3.5324   -5.3133   -7.8201 H   0  0  0  0  0  0  0  0  0  0  0  0
    3.6693   -6.1223   -6.2405 H   0  0  0  0  0  0  0  0  0  0  0  0
    2.1946   -6.3209   -7.2173 H   0  0  0  0  0  0  0  0  0  0  0  0
    1.6606    4.3148    1.1926 H   0  0  0  0  0  0  0  0  0  0  0  0
    3.1222    4.0997    1.9929 H   0  0  0  0  0  0  0  0  0  0  0  0
    3.1847    1.5145    1.7530 N   0  3  0  0  0  0  0  0  0  0  0  0
    3.0701    0.5087    1.5814 H   0  0  0  0  0  0  0  0  0  0  0  0
  1 55  1  0  0  0  0
  2  3  1  0  0  0  0
  2 30  1  0  0  0  0
  2 55  2  0  0  0  0
  3  8  2  0  0  0  0
  3  4  1  0  0  0  0
  4  5  2  0  0  0  0
  4 31  1  0  0  0  0
  5  6  1  0  0  0  0
  5 32  1  0  0  0  0
  6  7  2  0  0  0  0
  6 33  1  0  0  0  0
  7  8  1  0  0  0  0
  7  9  1  0  0  0  0
  8 34  1  0  0  0  0
  9 10  1  0  0  0  0
  9 35  1  0  0  0  0
  9 36  1  0  0  0  0
 10 11  1  0  0  0  0
 10 12  1  0  0  0  0
 10 19  1  0  0  0  0
 12 13  2  0  0  0  0
 12 14  1  0  0  0  0
 14 18  1  0  0  0  0
 14 15  1  0  0  0  0
 15 16  1  0  0  0  0
 15 37  1  0  0  0  0
 15 38  1  0  0  0  0
 16 17  1  0  0  0  0
 16 39  1  0  0  0  0
 16 40  1  0  0  0  0
 17 18  1  0  0  0  0
 17 41  1  0  0  0  0
 17 42  1  0  0  0  0
 18 43  1  0  0  0  0
 18 44  1  0  0  0  0
 19 20  1  0  0  0  0
 19 45  1  0  0  0  0
 20 21  2  0  0  0  0
 20 22  2  0  0  0  0
 20 23  1  0  0  0  0
 23 28  2  0  0  0  0
 23 24  1  0  0  0  0
 24 25  2  0  0  0  0
 24 46  1  0  0  0  0
 25 26  1  0  0  0  0
 25 47  1  0  0  0  0
 26 27  2  0  0  0  0
 26 29  1  0  0  0  0
 27 28  1  0  0  0  0
 27 48  1  0  0  0  0
 28 49  1  0  0  0  0
 29 50  1  0  0  0  0
 29 51  1  0  0  0  0
 29 52  1  0  0  0  0
 30 53  1  0  0  0  0
 30 54  1  0  0  0  0
 55 56  1  0  0  0  0
M  CHG  1  55   1
M  END
$$$$
ZINC03834149
  -OEChem-08230709403D

 64 67  0     1  0  0  0  0  0999 V2000
    2.5951   -7.9911    4.9813 H   0  0  0  0  0  0  0  0  0  0  0  0
    3.8927   -6.5334    5.5610 C   0  0  0  0  0  0  0  0  0  0  0  0
    4.2771   -5.1265    5.3042 C   0  0  0  0  0  0  0  0  0  0  0  0
    5.3181   -4.5423    6.0257 C   0  0  0  0  0  0  0  0  0  0  0  0
    5.6718   -3.2313    5.7817 C   0  0  0  0  0  0  0  0  0  0  0  0
    4.9999   -2.4980    4.8197 C   0  0  0  0  0  0  0  0  0  0  0  0
    3.9631   -3.0701    4.1051 C   0  0  0  0  0  0  0  0  0  0  0  0
    3.6000   -4.3807    4.3401 C   0  0  0  0  0  0  0  0  0  0  0  0
    3.2324   -2.2626    3.0634 C   0  0  0  0  0  0  0  0  0  0  0  0
    2.0444   -1.5492    3.7119 C   0  0  1  0  0  0  0  0  0  0  0  0
    2.4058   -0.8698    4.4838 H   0  0  0  0  0  0  0  0  0  0  0  0
    1.2956   -0.7664    2.6641 C   0  0  0  0  0  0  0  0  0  0  0  0
    0.1789   -1.1068    2.3356 O   0  0  0  0  0  0  0  0  0  0  0  0
    1.8670    0.3120    2.0923 N   0  0  0  0  0  0  0  0  0  0  0  0
    1.1785    1.0440    1.0204 C   0  0  0  0  0  0  0  0  0  0  0  0
    1.1046    2.5253    1.4037 C   0  0  0  0  0  0  0  0  0  0  0  0
    2.5129    3.0393    1.7116 C   0  0  0  0  0  0  0  0  0  0  0  0
    3.0937    2.2625    2.8953 C   0  0  0  0  0  0  0  0  0  0  0  0
    3.1901    0.7781    2.5290 C   0  0  0  0  0  0  0  0  0  0  0  0
    2.4482    4.5050    2.0561 C   0  0  0  0  0  0  0  0  0  0  0  0
    1.3853    5.0794    2.0554 O   0  0  0  0  0  0  0  0  0  0  0  0
    1.1489   -2.5403    4.3137 N   0  0  0  0  0  0  0  0  0  0  0  0
    1.2917   -2.9178    5.9198 S   0  0  0  0  0  0  0  0  0  0  0  0
    0.2804   -3.8750    6.2034 O   0  0  0  0  0  0  0  0  0  0  0  0
    2.6696   -3.1724    6.1563 O   0  0  0  0  0  0  0  0  0  0  0  0
    0.8834   -1.4680    6.8341 C   0  0  0  0  0  0  0  0  0  0  0  0
    1.8888   -0.5639    7.1723 C   0  0  0  0  0  0  0  0  0  0  0  0
    1.6064    0.5682    7.8729 C   0  0  0  0  0  0  0  0  0  0  0  0
    0.2843    0.8265    8.2732 C   0  0  0  0  0  0  0  0  0  0  0  0
   -0.0446    1.9814    9.0036 C   0  0  0  0  0  0  0  0  0  0  0  0
   -1.3359    2.1989    9.3739 C   0  0  0  0  0  0  0  0  0  0  0  0
   -2.3405    1.2921    9.0404 C   0  0  0  0  0  0  0  0  0  0  0  0
   -2.0592    0.1630    8.3345 C   0  0  0  0  0  0  0  0  0  0  0  0
   -0.7371   -0.0954    7.9340 C   0  0  0  0  0  0  0  0  0  0  0  0
   -0.4080   -1.2505    7.2043 C   0  0  0  0  0  0  0  0  0  0  0  0
    4.5635   -7.2678    6.5143 N   0  0  0  0  0  0  0  0  0  0  0  0
    5.8463   -5.1151    6.7735 H   0  0  0  0  0  0  0  0  0  0  0  0
    6.4774   -2.7777    6.3399 H   0  0  0  0  0  0  0  0  0  0  0  0
    5.2834   -1.4734    4.6291 H   0  0  0  0  0  0  0  0  0  0  0  0
    2.7929   -4.8276    3.7786 H   0  0  0  0  0  0  0  0  0  0  0  0
    2.8727   -2.9254    2.2763 H   0  0  0  0  0  0  0  0  0  0  0  0
    3.9100   -1.5240    2.6349 H   0  0  0  0  0  0  0  0  0  0  0  0
    0.1706    0.6479    0.8965 H   0  0  0  0  0  0  0  0  0  0  0  0
    1.7311    0.9351    0.0872 H   0  0  0  0  0  0  0  0  0  0  0  0
    0.6825    3.0947    0.5756 H   0  0  0  0  0  0  0  0  0  0  0  0
    0.4739    2.6420    2.2850 H   0  0  0  0  0  0  0  0  0  0  0  0
    3.1495    2.8995    0.8380 H   0  0  0  0  0  0  0  0  0  0  0  0
    2.4443    2.3817    3.7626 H   0  0  0  0  0  0  0  0  0  0  0  0
    4.0873    2.6446    3.1295 H   0  0  0  0  0  0  0  0  0  0  0  0
    3.5096    0.2067    3.4005 H   0  0  0  0  0  0  0  0  0  0  0  0
    3.9090    0.6473    1.7202 H   0  0  0  0  0  0  0  0  0  0  0  0
    0.4725   -2.9753    3.7715 H   0  0  0  0  0  0  0  0  0  0  0  0
    2.9065   -0.7625    6.8699 H   0  0  0  0  0  0  0  0  0  0  0  0
    2.3952    1.2616    8.1247 H   0  0  0  0  0  0  0  0  0  0  0  0
    0.7234    2.6928    9.2690 H   0  0  0  0  0  0  0  0  0  0  0  0
   -1.5860    3.0872    9.9348 H   0  0  0  0  0  0  0  0  0  0  0  0
   -3.3572    1.4881    9.3472 H   0  0  0  0  0  0  0  0  0  0  0  0
   -2.8479   -0.5307    8.0835 H   0  0  0  0  0  0  0  0  0  0  0  0
   -1.1759   -1.9622    6.9390 H   0  0  0  0  0  0  0  0  0  0  0  0
    5.2876   -6.8634    7.0174 H   0  0  0  0  0  0  0  0  0  0  0  0
    4.3118   -8.1894    6.6825 H   0  0  0  0  0  0  0  0  0  0  0  0
    2.8968   -7.0267    4.8413 N   0  3  0  0  0  0  0  0  0  0  0  0
    2.4282   -6.4385    4.1422 H   0  0  0  0  0  0  0  0  0  0  0  0
    3.5715    5.1722    2.3637 O   0  5  0  0  0  0  0  0  0  0  0  0
  1 62  1  0  0  0  0
  2  3  1  0  0  0  0
  2 36  1  0  0  0  0
  2 62  2  0  0  0  0
  3  8  2  0  0  0  0
  3  4  1  0  0  0  0
  4  5  2  0  0  0  0
  4 37  1  0  0  0  0
  5  6  1  0  0  0  0
  5 38  1  0  0  0  0
  6  7  2  0  0  0  0
  6 39  1  0  0  0  0
  7  8  1  0  0  0  0
  7  9  1  0  0  0  0
  8 40  1  0  0  0  0
  9 10  1  0  0  0  0
  9 41  1  0  0  0  0
  9 42  1  0  0  0  0
 10 11  1  0  0  0  0
 10 12  1  0  0  0  0
 10 22  1  0  0  0  0
 12 13  2  0  0  0  0
 12 14  1  0  0  0  0
 14 19  1  0  0  0  0
 14 15  1  0  0  0  0
 15 16  1  0  0  0  0
 15 43  1  0  0  0  0
 15 44  1  0  0  0  0
 16 17  1  0  0  0  0
 16 45  1  0  0  0  0
 16 46  1  0  0  0  0
 17 18  1  0  0  0  0
 17 20  1  0  0  0  0
 17 47  1  0  0  0  0
 18 19  1  0  0  0  0
 18 48  1  0  0  0  0
 18 49  1  0  0  0  0
 19 50  1  0  0  0  0
 19 51  1  0  0  0  0
 20 21  2  0  0  0  0
 20 64  1  0  0  0  0
 22 23  1  0  0  0  0
 22 52  1  0  0  0  0
 23 24  2  0  0  0  0
 23 25  2  0  0  0  0
 23 26  1  0  0  0  0
 26 35  2  0  0  0  0
 26 27  1  0  0  0  0
 27 28  2  0  0  0  0
 27 53  1  0  0  0  0
 28 29  1  0  0  0  0
 28 54  1  0  0  0  0
 29 34  2  0  0  0  0
 29 30  1  0  0  0  0
 30 31  2  0  0  0  0
 30 55  1  0  0  0  0
 31 32  1  0  0  0  0
 31 56  1  0  0  0  0
 32 33  2  0  0  0  0
 32 57  1  0  0  0  0
 33 34  1  0  0  0  0
 33 58  1  0  0  0  0
 34 35  1  0  0  0  0
 35 59  1  0  0  0  0
 36 60  1  0  0  0  0
 36 61  1  0  0  0  0
 62 63  1  0  0  0  0
M  CHG  2  62   1  64  -1
M  END
$$$$
ZINC03834150
  -OEChem-08230709403D

 65 68  0     1  0  0  0  0  0999 V2000
    5.7829   -0.2081   -0.0553 H   0  0  0  0  0  0  0  0  0  0  0  0
    3.8647   -0.8896   -0.0404 C   0  0  0  0  0  0  0  0  0  0  0  0
    2.4537   -0.4404   -0.0240 C   0  0  0  0  0  0  0  0  0  0  0  0
    1.4206   -1.3775   -0.0192 C   0  0  0  0  0  0  0  0  0  0  0  0
    0.1080   -0.9528   -0.0045 C   0  0  0  0  0  0  0  0  0  0  0  0
   -0.1845    0.3995    0.0056 C   0  0  0  0  0  0  0  0  0  0  0  0
    0.8357    1.3336    0.0010 C   0  0  0  0  0  0  0  0  0  0  0  0
    2.1526    0.9211   -0.0138 C   0  0  0  0  0  0  0  0  0  0  0  0
    0.5085    2.8046    0.0117 C   0  0  0  0  0  0  0  0  0  0  0  0
    0.4111    3.2949    1.4577 C   0  0  1  0  0  0  0  0  0  0  0  0
    1.3322    3.0507    1.9870 H   0  0  0  0  0  0  0  0  0  0  0  0
    0.2060    4.7878    1.4691 C   0  0  0  0  0  0  0  0  0  0  0  0
   -0.7877    5.2595    1.9800 O   0  0  0  0  0  0  0  0  0  0  0  0
    1.1267    5.5989    0.9115 N   0  0  0  0  0  0  0  0  0  0  0  0
    2.3777    5.1621    0.2652 C   0  0  0  0  0  0  0  0  0  0  0  0
    3.3229    6.3831    0.3597 C   0  0  0  0  0  0  0  0  0  0  0  0
    2.3353    7.5616    0.1514 C   0  0  0  0  0  0  0  0  0  0  0  0
    1.0531    7.0661    0.8529 C   0  0  1  0  0  0  0  0  0  0  0  0
    0.9981    7.4751    1.8618 H   0  0  0  0  0  0  0  0  0  0  0  0
   -0.1589    7.4872    0.0625 C   0  0  0  0  0  0  0  0  0  0  0  0
   -0.8933    6.6514   -0.4084 O   0  0  0  0  0  0  0  0  0  0  0  0
   -0.4225    8.7908   -0.1184 O   0  0  0  0  0  0  0  0  0  0  0  0
   -1.6068    9.1231   -0.8900 C   0  0  0  0  0  0  0  0  0  0  0  0
   -0.7205    2.6414    2.1198 N   0  0  0  0  0  0  0  0  0  0  0  0
   -0.6244    2.2448    3.7247 S   0  0  0  0  0  0  0  0  0  0  0  0
   -1.8709    1.6587    4.0736 O   0  0  0  0  0  0  0  0  0  0  0  0
    0.6122    1.5675    3.9023 O   0  0  0  0  0  0  0  0  0  0  0  0
   -0.5066    3.7531    4.6279 C   0  0  0  0  0  0  0  0  0  0  0  0
    0.7488    4.2933    4.9013 C   0  0  0  0  0  0  0  0  0  0  0  0
    0.8746    5.4593    5.5917 C   0  0  0  0  0  0  0  0  0  0  0  0
   -0.2761    6.1251    6.0474 C   0  0  0  0  0  0  0  0  0  0  0  0
   -0.1857    7.3277    6.7692 C   0  0  0  0  0  0  0  0  0  0  0  0
   -1.3217    7.9449    7.1944 C   0  0  0  0  0  0  0  0  0  0  0  0
   -2.5769    7.4019    6.9257 C   0  0  0  0  0  0  0  0  0  0  0  0
   -2.7030    6.2390    6.2300 C   0  0  0  0  0  0  0  0  0  0  0  0
   -1.5524    5.5732    5.7741 C   0  0  0  0  0  0  0  0  0  0  0  0
   -1.6426    4.3702    5.0530 C   0  0  0  0  0  0  0  0  0  0  0  0
    4.1591   -2.2356   -0.0509 N   0  0  0  0  0  0  0  0  0  0  0  0
    1.6476   -2.4333   -0.0268 H   0  0  0  0  0  0  0  0  0  0  0  0
   -0.6928   -1.6774   -0.0011 H   0  0  0  0  0  0  0  0  0  0  0  0
   -1.2136    0.7272    0.0126 H   0  0  0  0  0  0  0  0  0  0  0  0
    2.9484    1.6512   -0.0171 H   0  0  0  0  0  0  0  0  0  0  0  0
    1.2936    3.3552   -0.5066 H   0  0  0  0  0  0  0  0  0  0  0  0
   -0.4438    2.9686   -0.4925 H   0  0  0  0  0  0  0  0  0  0  0  0
    2.8025    4.3109    0.7973 H   0  0  0  0  0  0  0  0  0  0  0  0
    2.1959    4.9059   -0.7786 H   0  0  0  0  0  0  0  0  0  0  0  0
    4.0747    6.3594   -0.4291 H   0  0  0  0  0  0  0  0  0  0  0  0
    3.7920    6.4354    1.3422 H   0  0  0  0  0  0  0  0  0  0  0  0
    2.1537    7.7296   -0.9101 H   0  0  0  0  0  0  0  0  0  0  0  0
    2.7083    8.4692    0.6259 H   0  0  0  0  0  0  0  0  0  0  0  0
   -1.7025   10.2066   -0.9603 H   0  0  0  0  0  0  0  0  0  0  0  0
   -1.5185    8.7006   -1.8909 H   0  0  0  0  0  0  0  0  0  0  0  0
   -2.4881    8.7116   -0.3983 H   0  0  0  0  0  0  0  0  0  0  0  0
   -1.5262    2.4410    1.6181 H   0  0  0  0  0  0  0  0  0  0  0  0
    1.6348    3.7810    4.5564 H   0  0  0  0  0  0  0  0  0  0  0  0
    1.8537    5.8680    5.7930 H   0  0  0  0  0  0  0  0  0  0  0  0
    0.7802    7.7601    6.9848 H   0  0  0  0  0  0  0  0  0  0  0  0
   -1.2494    8.8690    7.7485 H   0  0  0  0  0  0  0  0  0  0  0  0
   -3.4627    7.9115    7.2751 H   0  0  0  0  0  0  0  0  0  0  0  0
   -3.6822    5.8299    6.0294 H   0  0  0  0  0  0  0  0  0  0  0  0
   -2.6085    3.9377    4.8376 H   0  0  0  0  0  0  0  0  0  0  0  0
    3.4421   -2.8889   -0.0476 H   0  0  0  0  0  0  0  0  0  0  0  0
    5.0833   -2.5299   -0.0616 H   0  0  0  0  0  0  0  0  0  0  0  0
    4.7963    0.0511   -0.0441 N   0  3  0  0  0  0  0  0  0  0  0  0
    4.5258    1.0416   -0.0358 H   0  0  0  0  0  0  0  0  0  0  0  0
  1 64  1  0  0  0  0
  2  3  1  0  0  0  0
  2 38  1  0  0  0  0
  2 64  2  0  0  0  0
  3  8  2  0  0  0  0
  3  4  1  0  0  0  0
  4  5  2  0  0  0  0
  4 39  1  0  0  0  0
  5  6  1  0  0  0  0
  5 40  1  0  0  0  0
  6  7  2  0  0  0  0
  6 41  1  0  0  0  0
  7  8  1  0  0  0  0
  7  9  1  0  0  0  0
  8 42  1  0  0  0  0
  9 10  1  0  0  0  0
  9 43  1  0  0  0  0
  9 44  1  0  0  0  0
 10 11  1  0  0  0  0
 10 12  1  0  0  0  0
 10 24  1  0  0  0  0
 12 13  2  0  0  0  0
 12 14  1  0  0  0  0
 14 18  1  0  0  0  0
 14 15  1  0  0  0  0
 15 16  1  0  0  0  0
 15 45  1  0  0  0  0
 15 46  1  0  0  0  0
 16 17  1  0  0  0  0
 16 47  1  0  0  0  0
 16 48  1  0  0  0  0
 17 18  1  0  0  0  0
 17 49  1  0  0  0  0
 17 50  1  0  0  0  0
 18 19  1  0  0  0  0
 18 20  1  0  0  0  0
 20 21  2  0  0  0  0
 20 22  1  0  0  0  0
 22 23  1  0  0  0  0
 23 51  1  0  0  0  0
 23 52  1  0  0  0  0
 23 53  1  0  0  0  0
 24 25  1  0  0  0  0
 24 54  1  0  0  0  0
 25 26  2  0  0  0  0
 25 27  2  0  0  0  0
 25 28  1  0  0  0  0
 28 37  2  0  0  0  0
 28 29  1  0  0  0  0
 29 30  2  0  0  0  0
 29 55  1  0  0  0  0
 30 31  1  0  0  0  0
 30 56  1  0  0  0  0
 31 36  2  0  0  0  0
 31 32  1  0  0  0  0
 32 33  2  0  0  0  0
 32 57  1  0  0  0  0
 33 34  1  0  0  0  0
 33 58  1  0  0  0  0
 34 35  2  0  0  0  0
 34 59  1  0  0  0  0
 35 36  1  0  0  0  0
 35 60  1  0  0  0  0
 36 37  1  0  0  0  0
 37 61  1  0  0  0  0
 38 62  1  0  0  0  0
 38 63  1  0  0  0  0
 64 65  1  0  0  0  0
M  CHG  1  64   1
M  END
$$$$
ZINC03834151
  -OEChem-08230709403D

 82 87  0     1  0  0  0  0  0999 V2000
   -3.4352    1.6057    0.0642 H   0  0  0  0  0  0  0  0  0  0  0  0
   -1.5173    2.2885    0.0765 C   0  0  0  0  0  0  0  0  0  0  0  0
   -0.1060    1.8403    0.0702 C   0  0  0  0  0  0  0  0  0  0  0  0
    0.9265    2.7779    0.0802 C   0  0  0  0  0  0  0  0  0  0  0  0
    2.2394    2.3542    0.0684 C   0  0  0  0  0  0  0  0  0  0  0  0
    2.5329    1.0022    0.0463 C   0  0  0  0  0  0  0  0  0  0  0  0
    1.5133    0.0675    0.0367 C   0  0  0  0  0  0  0  0  0  0  0  0
    0.1960    0.4791    0.0483 C   0  0  0  0  0  0  0  0  0  0  0  0
    1.8415   -1.4031    0.0131 C   0  0  0  0  0  0  0  0  0  0  0  0
    1.9467   -1.8789   -1.4372 C   0  0  1  0  0  0  0  0  0  0  0  0
    2.6715   -1.2632   -1.9699 H   0  0  0  0  0  0  0  0  0  0  0  0
    2.3946   -3.3175   -1.4626 C   0  0  0  0  0  0  0  0  0  0  0  0
    1.6900   -4.1632   -1.9719 O   0  0  0  0  0  0  0  0  0  0  0  0
    3.5783   -3.6645   -0.9194 N   0  0  0  0  0  0  0  0  0  0  0  0
    4.5090   -2.6526   -0.4079 C   0  0  0  0  0  0  0  0  0  0  0  0
    5.9109   -2.9775   -0.8588 C   0  0  0  0  0  0  0  0  0  0  0  0
    6.8918   -2.0132   -0.6704 C   0  0  0  0  0  0  0  0  0  0  0  0
    8.1945   -2.2551   -1.0544 C   0  0  0  0  0  0  0  0  0  0  0  0
    8.5256   -3.4676   -1.6305 C   0  0  0  0  0  0  0  0  0  0  0  0
    7.5515   -4.4250   -1.8210 C   0  0  0  0  0  0  0  0  0  0  0  0
    6.2374   -4.1825   -1.4391 C   0  0  0  0  0  0  0  0  0  0  0  0
    5.2256   -5.2692   -1.6911 C   0  0  0  0  0  0  0  0  0  0  0  0
    3.9866   -5.0749   -0.8099 C   0  0  2  0  0  0  0  0  0  0  0  0
    4.2283   -5.3095    0.2268 H   0  0  0  0  0  0  0  0  0  0  0  0
    2.8708   -5.9674   -1.2888 C   0  0  0  0  0  0  0  0  0  0  0  0
    2.8609   -6.3622   -2.4308 O   0  0  0  0  0  0  0  0  0  0  0  0
    1.8880   -6.3239   -0.4469 O   0  0  0  0  0  0  0  0  0  0  0  0
    0.8462   -7.1853   -0.9767 C   0  0  0  0  0  0  0  0  0  0  0  0
   -0.1623   -7.4773    0.1043 C   0  0  0  0  0  0  0  0  0  0  0  0
    0.0024   -8.5780    0.9242 C   0  0  0  0  0  0  0  0  0  0  0  0
   -0.9204   -8.8433    1.9187 C   0  0  0  0  0  0  0  0  0  0  0  0
   -2.0127   -8.0130    2.0874 C   0  0  0  0  0  0  0  0  0  0  0  0
   -2.1801   -6.9153    1.2642 C   0  0  0  0  0  0  0  0  0  0  0  0
   -1.2550   -6.6475    0.2725 C   0  0  0  0  0  0  0  0  0  0  0  0
    0.6380   -1.7635   -2.0852 N   0  0  0  0  0  0  0  0  0  0  0  0
    0.2685   -0.4135   -2.9704 S   0  0  0  0  0  0  0  0  0  0  0  0
   -1.0412   -0.6112   -3.4850 O   0  0  0  0  0  0  0  0  0  0  0  0
    0.6096    0.7063   -2.1649 O   0  0  0  0  0  0  0  0  0  0  0  0
    1.3555   -0.3862   -4.3570 C   0  0  0  0  0  0  0  0  0  0  0  0
    2.5805    0.2710   -4.2560 C   0  0  0  0  0  0  0  0  0  0  0  0
    3.4453    0.3063   -5.3062 C   0  0  0  0  0  0  0  0  0  0  0  0
    3.0961   -0.3183   -6.5157 C   0  0  0  0  0  0  0  0  0  0  0  0
    3.9602   -0.2973   -7.6240 C   0  0  0  0  0  0  0  0  0  0  0  0
    3.5886   -0.9134   -8.7792 C   0  0  0  0  0  0  0  0  0  0  0  0
    2.3614   -1.5658   -8.8819 C   0  0  0  0  0  0  0  0  0  0  0  0
    1.4991   -1.6064   -7.8298 C   0  0  0  0  0  0  0  0  0  0  0  0
    1.8482   -0.9819   -6.6202 C   0  0  0  0  0  0  0  0  0  0  0  0
    0.9838   -1.0022   -5.5121 C   0  0  0  0  0  0  0  0  0  0  0  0
   -1.8127    3.6341    0.0981 N   0  0  0  0  0  0  0  0  0  0  0  0
    0.6987    3.8334    0.0967 H   0  0  0  0  0  0  0  0  0  0  0  0
    3.0398    3.0792    0.0763 H   0  0  0  0  0  0  0  0  0  0  0  0
    3.5622    0.6753    0.0369 H   0  0  0  0  0  0  0  0  0  0  0  0
   -0.5992   -0.2516    0.0408 H   0  0  0  0  0  0  0  0  0  0  0  0
    2.7913   -1.5716    0.5207 H   0  0  0  0  0  0  0  0  0  0  0  0
    1.0541   -1.9592    0.5218 H   0  0  0  0  0  0  0  0  0  0  0  0
    4.2236   -1.6719   -0.7887 H   0  0  0  0  0  0  0  0  0  0  0  0
    4.4719   -2.6434    0.6814 H   0  0  0  0  0  0  0  0  0  0  0  0
    6.6329   -1.0665   -0.2198 H   0  0  0  0  0  0  0  0  0  0  0  0
    8.9527   -1.5003   -0.9059 H   0  0  0  0  0  0  0  0  0  0  0  0
    9.5443   -3.6645   -1.9301 H   0  0  0  0  0  0  0  0  0  0  0  0
    7.8122   -5.3717   -2.2707 H   0  0  0  0  0  0  0  0  0  0  0  0
    4.9290   -5.2469   -2.7398 H   0  0  0  0  0  0  0  0  0  0  0  0
    5.6751   -6.2366   -1.4669 H   0  0  0  0  0  0  0  0  0  0  0  0
    0.3514   -6.6867   -1.8102 H   0  0  0  0  0  0  0  0  0  0  0  0
    1.2884   -8.1195   -1.3230 H   0  0  0  0  0  0  0  0  0  0  0  0
    0.8538   -9.2288    0.7899 H   0  0  0  0  0  0  0  0  0  0  0  0
   -0.7894   -9.7009    2.5620 H   0  0  0  0  0  0  0  0  0  0  0  0
   -2.7350   -8.2218    2.8626 H   0  0  0  0  0  0  0  0  0  0  0  0
   -3.0334   -6.2666    1.3960 H   0  0  0  0  0  0  0  0  0  0  0  0
   -1.3859   -5.7898   -0.3708 H   0  0  0  0  0  0  0  0  0  0  0  0
   -0.0122   -2.4777   -1.9958 H   0  0  0  0  0  0  0  0  0  0  0  0
    2.8492    0.7559   -3.3291 H   0  0  0  0  0  0  0  0  0  0  0  0
    4.3928    0.8161   -5.2122 H   0  0  0  0  0  0  0  0  0  0  0  0
    4.9143    0.2045   -7.5589 H   0  0  0  0  0  0  0  0  0  0  0  0
    4.2546   -0.8960   -9.6292 H   0  0  0  0  0  0  0  0  0  0  0  0
    2.0905   -2.0462   -9.8104 H   0  0  0  0  0  0  0  0  0  0  0  0
    0.5516   -2.1161   -7.9238 H   0  0  0  0  0  0  0  0  0  0  0  0
    0.0297   -1.5038   -5.5772 H   0  0  0  0  0  0  0  0  0  0  0  0
   -1.0961    4.2878    0.1091 H   0  0  0  0  0  0  0  0  0  0  0  0
   -2.7372    3.9277    0.1023 H   0  0  0  0  0  0  0  0  0  0  0  0
   -2.4484    1.3472    0.0606 N   0  3  0  0  0  0  0  0  0  0  0  0
   -2.1772    0.3570    0.0447 H   0  0  0  0  0  0  0  0  0  0  0  0
  1 81  1  0  0  0  0
  2  3  1  0  0  0  0
  2 49  1  0  0  0  0
  2 81  2  0  0  0  0
  3  8  2  0  0  0  0
  3  4  1  0  0  0  0
  4  5  2  0  0  0  0
  4 50  1  0  0  0  0
  5  6  1  0  0  0  0
  5 51  1  0  0  0  0
  6  7  2  0  0  0  0
  6 52  1  0  0  0  0
  7  8  1  0  0  0  0
  7  9  1  0  0  0  0
  8 53  1  0  0  0  0
  9 10  1  0  0  0  0
  9 54  1  0  0  0  0
  9 55  1  0  0  0  0
 10 11  1  0  0  0  0
 10 12  1  0  0  0  0
 10 35  1  0  0  0  0
 12 13  2  0  0  0  0
 12 14  1  0  0  0  0
 14 23  1  0  0  0  0
 14 15  1  0  0  0  0
 15 16  1  0  0  0  0
 15 56  1  0  0  0  0
 15 57  1  0  0  0  0
 16 21  2  0  0  0  0
 16 17  1  0  0  0  0
 17 18  2  0  0  0  0
 17 58  1  0  0  0  0
 18 19  1  0  0  0  0
 18 59  1  0  0  0  0
 19 20  2  0  0  0  0
 19 60  1  0  0  0  0
 20 21  1  0  0  0  0
 20 61  1  0  0  0  0
 21 22  1  0  0  0  0
 22 23  1  0  0  0  0
 22 62  1  0  0  0  0
 22 63  1  0  0  0  0
 23 24  1  0  0  0  0
 23 25  1  0  0  0  0
 25 26  2  0  0  0  0
 25 27  1  0  0  0  0
 27 28  1  0  0  0  0
 28 29  1  0  0  0  0
 28 64  1  0  0  0  0
 28 65  1  0  0  0  0
 29 34  2  0  0  0  0
 29 30  1  0  0  0  0
 30 31  2  0  0  0  0
 30 66  1  0  0  0  0
 31 32  1  0  0  0  0
 31 67  1  0  0  0  0
 32 33  2  0  0  0  0
 32 68  1  0  0  0  0
 33 34  1  0  0  0  0
 33 69  1  0  0  0  0
 34 70  1  0  0  0  0
 35 36  1  0  0  0  0
 35 71  1  0  0  0  0
 36 37  2  0  0  0  0
 36 38  2  0  0  0  0
 36 39  1  0  0  0  0
 39 48  2  0  0  0  0
 39 40  1  0  0  0  0
 40 41  2  0  0  0  0
 40 72  1  0  0  0  0
 41 42  1  0  0  0  0
 41 73  1  0  0  0  0
 42 47  2  0  0  0  0
 42 43  1  0  0  0  0
 43 44  2  0  0  0  0
 43 74  1  0  0  0  0
 44 45  1  0  0  0  0
 44 75  1  0  0  0  0
 45 46  2  0  0  0  0
 45 76  1  0  0  0  0
 46 47  1  0  0  0  0
 46 77  1  0  0  0  0
 47 48  1  0  0  0  0
 48 78  1  0  0  0  0
 49 79  1  0  0  0  0
 49 80  1  0  0  0  0
 81 82  1  0  0  0  0
M  CHG  1  81   1
M  END
$$$$
ZINC03834152
  -OEChem-08230709403D

 60 62  0     1  0  0  0  0  0999 V2000
    0.8953   12.3650    2.2190 H   0  0  0  0  0  0  0  0  0  0  0  0
   -0.8038   11.2549    2.3773 C   0  0  0  0  0  0  0  0  0  0  0  0
   -1.6851   10.3337    1.6237 C   0  0  0  0  0  0  0  0  0  0  0  0
   -2.8214    9.7989    2.2304 C   0  0  0  0  0  0  0  0  0  0  0  0
   -3.6389    8.9416    1.5231 C   0  0  0  0  0  0  0  0  0  0  0  0
   -3.3364    8.6166    0.2126 C   0  0  0  0  0  0  0  0  0  0  0  0
   -2.2080    9.1394   -0.3926 C   0  0  0  0  0  0  0  0  0  0  0  0
   -1.3825    9.9980    0.3047 C   0  0  0  0  0  0  0  0  0  0  0  0
   -1.8823    8.7755   -1.8184 C   0  0  0  0  0  0  0  0  0  0  0  0
   -0.9955    7.5288   -1.8368 C   0  0  1  0  0  0  0  0  0  0  0  0
   -1.4849    6.7267   -1.2844 H   0  0  0  0  0  0  0  0  0  0  0  0
   -0.7710    7.0931   -3.2618 C   0  0  0  0  0  0  0  0  0  0  0  0
    0.3504    7.0449   -3.7092 O   0  0  0  0  0  0  0  0  0  0  0  0
   -1.8166    6.7586   -4.0340 O   0  0  0  0  0  0  0  0  0  0  0  0
   -1.5257    6.3485   -5.3962 C   0  0  0  0  0  0  0  0  0  0  0  0
   -2.8320    6.0086   -6.1165 C   0  0  0  0  0  0  0  0  0  0  0  0
   -2.5254    5.5765   -7.5519 C   0  0  0  0  0  0  0  0  0  0  0  0
   -3.8317    5.2365   -8.2722 C   0  0  0  0  0  0  0  0  0  0  0  0
    0.2930    7.8369   -1.2115 N   0  0  0  0  0  0  0  0  0  0  0  0
    0.5361    7.5028    0.3922 S   0  0  0  0  0  0  0  0  0  0  0  0
   -0.5813    8.0335    1.0915 O   0  0  0  0  0  0  0  0  0  0  0  0
    1.8721    7.8854    0.6887 O   0  0  0  0  0  0  0  0  0  0  0  0
    0.4608    5.7522    0.5769 C   0  0  0  0  0  0  0  0  0  0  0  0
    1.6263    4.9980    0.4526 C   0  0  0  0  0  0  0  0  0  0  0  0
    1.6029    3.6442    0.5896 C   0  0  0  0  0  0  0  0  0  0  0  0
    0.3869    2.9936    0.8603 C   0  0  0  0  0  0  0  0  0  0  0  0
    0.3231    1.5974    1.0078 C   0  0  0  0  0  0  0  0  0  0  0  0
   -0.8724    1.0019    1.2692 C   0  0  0  0  0  0  0  0  0  0  0  0
   -2.0388    1.7556    1.3879 C   0  0  0  0  0  0  0  0  0  0  0  0
   -2.0142    3.1100    1.2571 C   0  0  0  0  0  0  0  0  0  0  0  0
   -0.7982    3.7604    0.9866 C   0  0  0  0  0  0  0  0  0  0  0  0
   -0.7346    5.1565    0.8382 C   0  0  0  0  0  0  0  0  0  0  0  0
   -1.1054   11.5847    3.6806 N   0  0  0  0  0  0  0  0  0  0  0  0
   -3.0611   10.0555    3.2518 H   0  0  0  0  0  0  0  0  0  0  0  0
   -4.5188    8.5264    1.9919 H   0  0  0  0  0  0  0  0  0  0  0  0
   -3.9817    7.9486   -0.3385 H   0  0  0  0  0  0  0  0  0  0  0  0
   -0.5038   10.4088   -0.1703 H   0  0  0  0  0  0  0  0  0  0  0  0
   -1.3556    9.6032   -2.2934 H   0  0  0  0  0  0  0  0  0  0  0  0
   -2.8054    8.5728   -2.3614 H   0  0  0  0  0  0  0  0  0  0  0  0
   -1.0224    7.1609   -5.9205 H   0  0  0  0  0  0  0  0  0  0  0  0
   -0.8799    5.4705   -5.3812 H   0  0  0  0  0  0  0  0  0  0  0  0
   -3.3353    5.1963   -5.5922 H   0  0  0  0  0  0  0  0  0  0  0  0
   -3.4778    6.8866   -6.1315 H   0  0  0  0  0  0  0  0  0  0  0  0
   -2.0221    6.3888   -8.0761 H   0  0  0  0  0  0  0  0  0  0  0  0
   -1.8797    4.6985   -7.5369 H   0  0  0  0  0  0  0  0  0  0  0  0
   -4.3350    4.4242   -7.7479 H   0  0  0  0  0  0  0  0  0  0  0  0
   -4.4775    6.1146   -8.2872 H   0  0  0  0  0  0  0  0  0  0  0  0
   -3.6133    4.9287   -9.2948 H   0  0  0  0  0  0  0  0  0  0  0  0
    1.0038    8.2366   -1.7368 H   0  0  0  0  0  0  0  0  0  0  0  0
    2.5621    5.4955    0.2450 H   0  0  0  0  0  0  0  0  0  0  0  0
    2.5139    3.0727    0.4904 H   0  0  0  0  0  0  0  0  0  0  0  0
    1.2180    1.0002    0.9140 H   0  0  0  0  0  0  0  0  0  0  0  0
   -0.9187   -0.0713    1.3817 H   0  0  0  0  0  0  0  0  0  0  0  0
   -2.9754    1.2577    1.5912 H   0  0  0  0  0  0  0  0  0  0  0  0
   -2.9253    3.6814    1.3555 H   0  0  0  0  0  0  0  0  0  0  0  0
   -1.6297    5.7536    0.9318 H   0  0  0  0  0  0  0  0  0  0  0  0
   -1.8950   11.2136    4.1046 H   0  0  0  0  0  0  0  0  0  0  0  0
   -0.5282   12.1881    4.1742 H   0  0  0  0  0  0  0  0  0  0  0  0
    0.2578   11.7270    1.7423 N   0  3  0  0  0  0  0  0  0  0  0  0
    0.4393   11.4510    0.7701 H   0  0  0  0  0  0  0  0  0  0  0  0
  1 59  1  0  0  0  0
  2  3  1  0  0  0  0
  2 33  1  0  0  0  0
  2 59  2  0  0  0  0
  3  8  2  0  0  0  0
  3  4  1  0  0  0  0
  4  5  2  0  0  0  0
  4 34  1  0  0  0  0
  5  6  1  0  0  0  0
  5 35  1  0  0  0  0
  6  7  2  0  0  0  0
  6 36  1  0  0  0  0
  7  8  1  0  0  0  0
  7  9  1  0  0  0  0
  8 37  1  0  0  0  0
  9 10  1  0  0  0  0
  9 38  1  0  0  0  0
  9 39  1  0  0  0  0
 10 11  1  0  0  0  0
 10 12  1  0  0  0  0
 10 19  1  0  0  0  0
 12 13  2  0  0  0  0
 12 14  1  0  0  0  0
 14 15  1  0  0  0  0
 15 16  1  0  0  0  0
 15 40  1  0  0  0  0
 15 41  1  0  0  0  0
 16 17  1  0  0  0  0
 16 42  1  0  0  0  0
 16 43  1  0  0  0  0
 17 18  1  0  0  0  0
 17 44  1  0  0  0  0
 17 45  1  0  0  0  0
 18 46  1  0  0  0  0
 18 47  1  0  0  0  0
 18 48  1  0  0  0  0
 19 20  1  0  0  0  0
 19 49  1  0  0  0  0
 20 21  2  0  0  0  0
 20 22  2  0  0  0  0
 20 23  1  0  0  0  0
 23 32  2  0  0  0  0
 23 24  1  0  0  0  0
 24 25  2  0  0  0  0
 24 50  1  0  0  0  0
 25 26  1  0  0  0  0
 25 51  1  0  0  0  0
 26 31  2  0  0  0  0
 26 27  1  0  0  0  0
 27 28  2  0  0  0  0
 27 52  1  0  0  0  0
 28 29  1  0  0  0  0
 28 53  1  0  0  0  0
 29 30  2  0  0  0  0
 29 54  1  0  0  0  0
 30 31  1  0  0  0  0
 30 55  1  0  0  0  0
 31 32  1  0  0  0  0
 32 56  1  0  0  0  0
 33 57  1  0  0  0  0
 33 58  1  0  0  0  0
 59 60  1  0  0  0  0
M  CHG  1  59   1
M  END
$$$$
ZINC03834153
  -OEChem-08230709403D

 68 71  0     1  0  0  0  0  0999 V2000
   -2.6537    3.3343   -0.7921 H   0  0  0  0  0  0  0  0  0  0  0  0
   -0.9201    2.3123   -0.4849 C   0  0  0  0  0  0  0  0  0  0  0  0
   -0.3766    0.9538   -0.2566 C   0  0  0  0  0  0  0  0  0  0  0  0
    0.9969    0.7656   -0.1039 C   0  0  0  0  0  0  0  0  0  0  0  0
    1.4966   -0.5017    0.1151 C   0  0  0  0  0  0  0  0  0  0  0  0
    0.6393   -1.5863    0.1706 C   0  0  0  0  0  0  0  0  0  0  0  0
   -0.7231   -1.4068    0.0137 C   0  0  0  0  0  0  0  0  0  0  0  0
   -1.2355   -0.1432   -0.1992 C   0  0  0  0  0  0  0  0  0  0  0  0
   -1.6501   -2.5934    0.0761 C   0  0  0  0  0  0  0  0  0  0  0  0
   -1.8244   -3.1786   -1.3268 C   0  0  1  0  0  0  0  0  0  0  0  0
   -0.8566   -3.5056   -1.7070 H   0  0  0  0  0  0  0  0  0  0  0  0
   -2.7642   -4.3552   -1.2670 C   0  0  0  0  0  0  0  0  0  0  0  0
   -3.8624   -4.2804   -1.7761 O   0  0  0  0  0  0  0  0  0  0  0  0
   -2.3843   -5.4903   -0.6477 N   0  0  0  0  0  0  0  0  0  0  0  0
   -3.2446   -6.6812   -0.6862 C   0  0  0  0  0  0  0  0  0  0  0  0
   -3.2709   -7.2251   -2.1142 C   0  0  0  0  0  0  0  0  0  0  0  0
   -1.9188   -7.8866   -2.4300 C   0  0  0  0  0  0  0  0  0  0  0  0
   -0.8857   -6.8075   -2.7335 C   0  0  0  0  0  0  0  0  0  0  0  0
    0.2082   -6.7801   -1.6505 C   0  0  0  0  0  0  0  0  0  0  0  0
   -0.4335   -6.8776   -0.2663 C   0  0  0  0  0  0  0  0  0  0  0  0
   -1.1223   -5.5483    0.0705 C   0  0  0  0  0  0  0  0  0  0  0  0
   -2.3785   -2.1556   -2.2171 N   0  0  0  0  0  0  0  0  0  0  0  0
   -1.3677   -1.2385   -3.1549 S   0  0  0  0  0  0  0  0  0  0  0  0
   -2.1961   -0.3696   -3.9151 O   0  0  0  0  0  0  0  0  0  0  0  0
   -0.3432   -0.7565   -2.2962 O   0  0  0  0  0  0  0  0  0  0  0  0
   -0.5919   -2.3269   -4.3030 C   0  0  0  0  0  0  0  0  0  0  0  0
    0.6156   -2.9349   -3.9642 C   0  0  0  0  0  0  0  0  0  0  0  0
    1.2381   -3.7848   -4.8257 C   0  0  0  0  0  0  0  0  0  0  0  0
    0.6635   -4.0464   -6.0812 C   0  0  0  0  0  0  0  0  0  0  0  0
    1.2802   -4.9130   -6.9999 C   0  0  0  0  0  0  0  0  0  0  0  0
    0.6943   -5.1430   -8.2064 C   0  0  0  0  0  0  0  0  0  0  0  0
   -0.5104   -4.5308   -8.5475 C   0  0  0  0  0  0  0  0  0  0  0  0
   -1.1361   -3.6857   -7.6836 C   0  0  0  0  0  0  0  0  0  0  0  0
   -0.5617   -3.4240   -6.4280 C   0  0  0  0  0  0  0  0  0  0  0  0
   -1.1780   -2.5569   -5.5096 C   0  0  0  0  0  0  0  0  0  0  0  0
   -0.0689    3.3943   -0.5412 N   0  0  0  0  0  0  0  0  0  0  0  0
    1.6675    1.6108   -0.1520 H   0  0  0  0  0  0  0  0  0  0  0  0
    2.5595   -0.6480    0.2386 H   0  0  0  0  0  0  0  0  0  0  0  0
    1.0356   -2.5770    0.3374 H   0  0  0  0  0  0  0  0  0  0  0  0
   -2.2996   -0.0042   -0.3209 H   0  0  0  0  0  0  0  0  0  0  0  0
   -1.2266   -3.3509    0.7357 H   0  0  0  0  0  0  0  0  0  0  0  0
   -2.6196   -2.2773    0.4611 H   0  0  0  0  0  0  0  0  0  0  0  0
   -2.8447   -7.4415   -0.0152 H   0  0  0  0  0  0  0  0  0  0  0  0
   -4.2536   -6.4122   -0.3737 H   0  0  0  0  0  0  0  0  0  0  0  0
   -3.4479   -6.4067   -2.8122 H   0  0  0  0  0  0  0  0  0  0  0  0
   -4.0679   -7.9629   -2.2070 H   0  0  0  0  0  0  0  0  0  0  0  0
   -2.0271   -8.5400   -3.2957 H   0  0  0  0  0  0  0  0  0  0  0  0
   -1.5912   -8.4722   -1.5710 H   0  0  0  0  0  0  0  0  0  0  0  0
   -1.3803   -5.8368   -2.7687 H   0  0  0  0  0  0  0  0  0  0  0  0
   -0.4275   -7.0112   -3.7013 H   0  0  0  0  0  0  0  0  0  0  0  0
    0.7692   -5.8486   -1.7253 H   0  0  0  0  0  0  0  0  0  0  0  0
    0.8843   -7.6225   -1.7967 H   0  0  0  0  0  0  0  0  0  0  0  0
    0.3356   -7.0871    0.4771 H   0  0  0  0  0  0  0  0  0  0  0  0
   -1.1710   -7.6802   -0.2631 H   0  0  0  0  0  0  0  0  0  0  0  0
   -0.4867   -4.7177   -0.2364 H   0  0  0  0  0  0  0  0  0  0  0  0
   -1.3075   -5.4925    1.1432 H   0  0  0  0  0  0  0  0  0  0  0  0
   -3.3376   -2.0156   -2.2574 H   0  0  0  0  0  0  0  0  0  0  0  0
    1.0618   -2.7318   -3.0019 H   0  0  0  0  0  0  0  0  0  0  0  0
    2.1716   -4.2517   -4.5481 H   0  0  0  0  0  0  0  0  0  0  0  0
    2.2140   -5.3944   -6.7493 H   0  0  0  0  0  0  0  0  0  0  0  0
    1.1702   -5.8096   -8.9104 H   0  0  0  0  0  0  0  0  0  0  0  0
   -0.9539   -4.7299   -9.5119 H   0  0  0  0  0  0  0  0  0  0  0  0
   -2.0692   -3.2181   -7.9616 H   0  0  0  0  0  0  0  0  0  0  0  0
   -2.1115   -2.0753   -5.7602 H   0  0  0  0  0  0  0  0  0  0  0  0
    0.8863    3.2661   -0.4312 H   0  0  0  0  0  0  0  0  0  0  0  0
   -0.4248    4.2841   -0.6906 H   0  0  0  0  0  0  0  0  0  0  0  0
   -2.2314    2.4195   -0.6327 N   0  3  0  0  0  0  0  0  0  0  0  0
   -2.8234    1.5818   -0.5868 H   0  0  0  0  0  0  0  0  0  0  0  0
  1 67  1  0  0  0  0
  2  3  1  0  0  0  0
  2 36  1  0  0  0  0
  2 67  2  0  0  0  0
  3  8  2  0  0  0  0
  3  4  1  0  0  0  0
  4  5  2  0  0  0  0
  4 37  1  0  0  0  0
  5  6  1  0  0  0  0
  5 38  1  0  0  0  0
  6  7  2  0  0  0  0
  6 39  1  0  0  0  0
  7  8  1  0  0  0  0
  7  9  1  0  0  0  0
  8 40  1  0  0  0  0
  9 10  1  0  0  0  0
  9 41  1  0  0  0  0
  9 42  1  0  0  0  0
 10 11  1  0  0  0  0
 10 12  1  0  0  0  0
 10 22  1  0  0  0  0
 12 13  2  0  0  0  0
 12 14  1  0  0  0  0
 14 21  1  0  0  0  0
 14 15  1  0  0  0  0
 15 16  1  0  0  0  0
 15 43  1  0  0  0  0
 15 44  1  0  0  0  0
 16 17  1  0  0  0  0
 16 45  1  0  0  0  0
 16 46  1  0  0  0  0
 17 18  1  0  0  0  0
 17 47  1  0  0  0  0
 17 48  1  0  0  0  0
 18 19  1  0  0  0  0
 18 49  1  0  0  0  0
 18 50  1  0  0  0  0
 19 20  1  0  0  0  0
 19 51  1  0  0  0  0
 19 52  1  0  0  0  0
 20 21  1  0  0  0  0
 20 53  1  0  0  0  0
 20 54  1  0  0  0  0
 21 55  1  0  0  0  0
 21 56  1  0  0  0  0
 22 23  1  0  0  0  0
 22 57  1  0  0  0  0
 23 24  2  0  0  0  0
 23 25  2  0  0  0  0
 23 26  1  0  0  0  0
 26 35  2  0  0  0  0
 26 27  1  0  0  0  0
 27 28  2  0  0  0  0
 27 58  1  0  0  0  0
 28 29  1  0  0  0  0
 28 59  1  0  0  0  0
 29 34  2  0  0  0  0
 29 30  1  0  0  0  0
 30 31  2  0  0  0  0
 30 60  1  0  0  0  0
 31 32  1  0  0  0  0
 31 61  1  0  0  0  0
 32 33  2  0  0  0  0
 32 62  1  0  0  0  0
 33 34  1  0  0  0  0
 33 63  1  0  0  0  0
 34 35  1  0  0  0  0
 35 64  1  0  0  0  0
 36 65  1  0  0  0  0
 36 66  1  0  0  0  0
 67 68  1  0  0  0  0
M  CHG  1  67   1
M  END
$$$$
ZINC03834154
  -OEChem-08230709403D

 65 68  0     1  0  0  0  0  0999 V2000
    4.2611    4.1110    5.2493 H   0  0  0  0  0  0  0  0  0  0  0  0
    2.7684    2.7671    5.5807 C   0  0  0  0  0  0  0  0  0  0  0  0
    1.9230    1.7540    4.9084 C   0  0  0  0  0  0  0  0  0  0  0  0
    0.9675    1.0449    5.6361 C   0  0  0  0  0  0  0  0  0  0  0  0
    0.1829    0.1023    5.0041 C   0  0  0  0  0  0  0  0  0  0  0  0
    0.3426   -0.1404    3.6514 C   0  0  0  0  0  0  0  0  0  0  0  0
    1.2880    0.5600    2.9242 C   0  0  0  0  0  0  0  0  0  0  0  0
    2.0824    1.5016    3.5463 C   0  0  0  0  0  0  0  0  0  0  0  0
    1.4553    0.2900    1.4511 C   0  0  0  0  0  0  0  0  0  0  0  0
    0.5311    1.2138    0.6552 C   0  0  1  0  0  0  0  0  0  0  0  0
    0.7313    2.2501    0.9271 H   0  0  0  0  0  0  0  0  0  0  0  0
    0.7797    1.0242   -0.8190 C   0  0  0  0  0  0  0  0  0  0  0  0
    0.1114    0.2327   -1.4498 O   0  0  0  0  0  0  0  0  0  0  0  0
    1.7446    1.7343   -1.4366 N   0  0  0  0  0  0  0  0  0  0  0  0
    2.6328    2.6240   -0.6731 C   0  0  0  0  0  0  0  0  0  0  0  0
    4.0861    2.2863   -1.0420 C   0  0  0  0  0  0  0  0  0  0  0  0
    3.4103    1.3501   -3.1746 C   0  0  0  0  0  0  0  0  0  0  0  0
    1.9333    1.6448   -2.8924 C   0  0  0  0  0  0  0  0  0  0  0  0
    5.6547    2.2110   -2.8848 C   0  0  0  0  0  0  0  0  0  0  0  0
   -0.8645    0.8896    0.9607 N   0  0  0  0  0  0  0  0  0  0  0  0
   -2.0021    2.0921    1.0102 S   0  0  0  0  0  0  0  0  0  0  0  0
   -3.2448    1.4640    1.2940 O   0  0  0  0  0  0  0  0  0  0  0  0
   -1.4664    3.1245    1.8265 O   0  0  0  0  0  0  0  0  0  0  0  0
   -2.1323    2.7535   -0.6177 C   0  0  0  0  0  0  0  0  0  0  0  0
   -1.3208    3.8237   -0.9907 C   0  0  0  0  0  0  0  0  0  0  0  0
   -1.3925    4.3545   -2.2417 C   0  0  0  0  0  0  0  0  0  0  0  0
   -2.3053    3.8256   -3.1702 C   0  0  0  0  0  0  0  0  0  0  0  0
   -2.4125    4.3516   -4.4690 C   0  0  0  0  0  0  0  0  0  0  0  0
   -3.3077    3.8137   -5.3416 C   0  0  0  0  0  0  0  0  0  0  0  0
   -4.1230    2.7472   -4.9669 C   0  0  0  0  0  0  0  0  0  0  0  0
   -4.0470    2.2123   -3.7177 C   0  0  0  0  0  0  0  0  0  0  0  0
   -3.1342    2.7410   -2.7892 C   0  0  0  0  0  0  0  0  0  0  0  0
   -3.0274    2.2156   -1.4901 C   0  0  0  0  0  0  0  0  0  0  0  0
    2.6120    3.0106    6.9278 N   0  0  0  0  0  0  0  0  0  0  0  0
    0.8425    1.2329    6.6923 H   0  0  0  0  0  0  0  0  0  0  0  0
   -0.5573   -0.4474    5.5666 H   0  0  0  0  0  0  0  0  0  0  0  0
   -0.2737   -0.8794    3.1611 H   0  0  0  0  0  0  0  0  0  0  0  0
    2.8233    2.0448    2.9785 H   0  0  0  0  0  0  0  0  0  0  0  0
    1.1998   -0.7486    1.2408 H   0  0  0  0  0  0  0  0  0  0  0  0
    2.4900    0.4752    1.1629 H   0  0  0  0  0  0  0  0  0  0  0  0
    2.4187    3.6619   -0.9283 H   0  0  0  0  0  0  0  0  0  0  0  0
    2.4786    2.4672    0.3944 H   0  0  0  0  0  0  0  0  0  0  0  0
    4.3278    1.2811   -0.6964 H   0  0  0  0  0  0  0  0  0  0  0  0
    4.7565    3.0043   -0.5695 H   0  0  0  0  0  0  0  0  0  0  0  0
    3.6614    0.3580   -2.7994 H   0  0  0  0  0  0  0  0  0  0  0  0
    3.5902    1.3889   -4.2489 H   0  0  0  0  0  0  0  0  0  0  0  0
    1.3164    0.8402   -3.2928 H   0  0  0  0  0  0  0  0  0  0  0  0
    1.6500    2.5891   -3.3571 H   0  0  0  0  0  0  0  0  0  0  0  0
    5.7530    2.3413   -3.9626 H   0  0  0  0  0  0  0  0  0  0  0  0
    6.2496    2.9666   -2.3718 H   0  0  0  0  0  0  0  0  0  0  0  0
    6.0083    1.2186   -2.6051 H   0  0  0  0  0  0  0  0  0  0  0  0
   -1.1230   -0.0299    1.1300 H   0  0  0  0  0  0  0  0  0  0  0  0
   -0.6218    4.2350   -0.2775 H   0  0  0  0  0  0  0  0  0  0  0  0
   -0.7548    5.1812   -2.5179 H   0  0  0  0  0  0  0  0  0  0  0  0
   -1.7873    5.1780   -4.7733 H   0  0  0  0  0  0  0  0  0  0  0  0
   -3.3879    4.2196   -6.3392 H   0  0  0  0  0  0  0  0  0  0  0  0
   -4.8257    2.3392   -5.6784 H   0  0  0  0  0  0  0  0  0  0  0  0
   -4.6854    1.3862   -3.4414 H   0  0  0  0  0  0  0  0  0  0  0  0
   -3.6528    1.3893   -1.1857 H   0  0  0  0  0  0  0  0  0  0  0  0
    1.9481    2.5185    7.4357 H   0  0  0  0  0  0  0  0  0  0  0  0
    3.1657    3.6741    7.3682 H   0  0  0  0  0  0  0  0  0  0  0  0
    3.6554    3.4041    4.8322 N   0  3  0  0  0  0  0  0  0  0  0  0
    3.7337    3.1866    3.8318 H   0  0  0  0  0  0  0  0  0  0  0  0
    4.2357    2.3822   -2.5103 N   0  3  0  0  0  0  0  0  0  0  0  0
    3.9195    3.3095   -2.8172 H   0  0  0  0  0  0  0  0  0  0  0  0
  1 62  1  0  0  0  0
  2  3  1  0  0  0  0
  2 34  1  0  0  0  0
  2 62  2  0  0  0  0
  3  8  2  0  0  0  0
  3  4  1  0  0  0  0
  4  5  2  0  0  0  0
  4 35  1  0  0  0  0
  5  6  1  0  0  0  0
  5 36  1  0  0  0  0
  6  7  2  0  0  0  0
  6 37  1  0  0  0  0
  7  8  1  0  0  0  0
  7  9  1  0  0  0  0
  8 38  1  0  0  0  0
  9 10  1  0  0  0  0
  9 39  1  0  0  0  0
  9 40  1  0  0  0  0
 10 11  1  0  0  0  0
 10 12  1  0  0  0  0
 10 20  1  0  0  0  0
 12 13  2  0  0  0  0
 12 14  1  0  0  0  0
 14 18  1  0  0  0  0
 14 15  1  0  0  0  0
 15 16  1  0  0  0  0
 15 41  1  0  0  0  0
 15 42  1  0  0  0  0
 16 43  1  0  0  0  0
 16 44  1  0  0  0  0
 16 64  1  0  0  0  0
 17 18  1  0  0  0  0
 17 45  1  0  0  0  0
 17 46  1  0  0  0  0
 17 64  1  0  0  0  0
 18 47  1  0  0  0  0
 18 48  1  0  0  0  0
 19 49  1  0  0  0  0
 19 50  1  0  0  0  0
 19 51  1  0  0  0  0
 19 64  1  0  0  0  0
 20 21  1  0  0  0  0
 20 52  1  0  0  0  0
 21 22  2  0  0  0  0
 21 23  2  0  0  0  0
 21 24  1  0  0  0  0
 24 33  2  0  0  0  0
 24 25  1  0  0  0  0
 25 26  2  0  0  0  0
 25 53  1  0  0  0  0
 26 27  1  0  0  0  0
 26 54  1  0  0  0  0
 27 32  2  0  0  0  0
 27 28  1  0  0  0  0
 28 29  2  0  0  0  0
 28 55  1  0  0  0  0
 29 30  1  0  0  0  0
 29 56  1  0  0  0  0
 30 31  2  0  0  0  0
 30 57  1  0  0  0  0
 31 32  1  0  0  0  0
 31 58  1  0  0  0  0
 32 33  1  0  0  0  0
 33 59  1  0  0  0  0
 34 60  1  0  0  0  0
 34 61  1  0  0  0  0
 62 63  1  0  0  0  0
 64 65  1  0  0  0  0
M  CHG  2  62   1  64   1
M  END
$$$$
ZINC03834155
  -OEChem-08230709403D

 59 62  0     1  0  0  0  0  0999 V2000
    4.3200    4.1324    5.2056 H   0  0  0  0  0  0  0  0  0  0  0  0
    2.8510    2.7674    5.5565 C   0  0  0  0  0  0  0  0  0  0  0  0
    2.0077    1.7462    4.8943 C   0  0  0  0  0  0  0  0  0  0  0  0
    1.0743    1.0213    5.6350 C   0  0  0  0  0  0  0  0  0  0  0  0
    0.2914    0.0710    5.0124 C   0  0  0  0  0  0  0  0  0  0  0  0
    0.4311   -0.1638    3.6560 C   0  0  0  0  0  0  0  0  0  0  0  0
    1.3547    0.5522    2.9160 C   0  0  0  0  0  0  0  0  0  0  0  0
    2.1471    1.5016    3.5285 C   0  0  0  0  0  0  0  0  0  0  0  0
    1.5002    0.2905    1.4391 C   0  0  0  0  0  0  0  0  0  0  0  0
    0.5505    1.2053    0.6630 C   0  0  1  0  0  0  0  0  0  0  0  0
    0.7384    2.2427    0.9396 H   0  0  0  0  0  0  0  0  0  0  0  0
    0.7807    1.0300   -0.8159 C   0  0  0  0  0  0  0  0  0  0  0  0
    0.1110    0.2377   -1.4442 O   0  0  0  0  0  0  0  0  0  0  0  0
    1.7308    1.7537   -1.4404 N   0  0  0  0  0  0  0  0  0  0  0  0
    2.6751    2.6726   -0.7882 C   0  0  0  0  0  0  0  0  0  0  0  0
    3.5527    3.2908   -1.8967 C   0  0  0  0  0  0  0  0  0  0  0  0
    2.6760    3.1220   -3.1656 C   0  0  0  0  0  0  0  0  0  0  0  0
    1.9910    1.7599   -2.8915 C   0  0  0  0  0  0  0  0  0  0  0  0
   -0.8355    0.8572    0.9862 N   0  0  0  0  0  0  0  0  0  0  0  0
   -1.9907    2.0413    1.0606 S   0  0  0  0  0  0  0  0  0  0  0  0
   -3.2194    1.3919    1.3575 O   0  0  0  0  0  0  0  0  0  0  0  0
   -1.4595    3.0762    1.8767 O   0  0  0  0  0  0  0  0  0  0  0  0
   -2.1546    2.7121   -0.5604 C   0  0  0  0  0  0  0  0  0  0  0  0
   -1.3654    3.7973   -0.9372 C   0  0  0  0  0  0  0  0  0  0  0  0
   -1.4632    4.3357   -2.1833 C   0  0  0  0  0  0  0  0  0  0  0  0
   -2.3810    3.7991   -3.1025 C   0  0  0  0  0  0  0  0  0  0  0  0
   -2.5151    4.3326   -4.3958 C   0  0  0  0  0  0  0  0  0  0  0  0
   -3.4143    3.7868   -5.2594 C   0  0  0  0  0  0  0  0  0  0  0  0
   -4.2073    2.7051   -4.8807 C   0  0  0  0  0  0  0  0  0  0  0  0
   -4.1052    2.1627   -3.6367 C   0  0  0  0  0  0  0  0  0  0  0  0
   -3.1873    2.6992   -2.7175 C   0  0  0  0  0  0  0  0  0  0  0  0
   -3.0537    2.1662   -1.4239 C   0  0  0  0  0  0  0  0  0  0  0  0
    2.7146    3.0032    6.9071 N   0  0  0  0  0  0  0  0  0  0  0  0
    0.9648    1.2032    6.6939 H   0  0  0  0  0  0  0  0  0  0  0  0
   -0.4317   -0.4909    5.5850 H   0  0  0  0  0  0  0  0  0  0  0  0
   -0.1837   -0.9089    3.1731 H   0  0  0  0  0  0  0  0  0  0  0  0
    2.8709    2.0569    2.9505 H   0  0  0  0  0  0  0  0  0  0  0  0
    1.2549   -0.7504    1.2285 H   0  0  0  0  0  0  0  0  0  0  0  0
    2.5273    0.4906    1.1340 H   0  0  0  0  0  0  0  0  0  0  0  0
    2.1280    3.4569   -0.2652 H   0  0  0  0  0  0  0  0  0  0  0  0
    3.3015    2.1230   -0.0854 H   0  0  0  0  0  0  0  0  0  0  0  0
    4.4906    2.7452   -2.0005 H   0  0  0  0  0  0  0  0  0  0  0  0
    3.7393    4.3455   -1.6943 H   0  0  0  0  0  0  0  0  0  0  0  0
    3.2927    3.0756   -4.0632 H   0  0  0  0  0  0  0  0  0  0  0  0
    1.9393    3.9218   -3.2407 H   0  0  0  0  0  0  0  0  0  0  0  0
    2.6562    0.9397   -3.1612 H   0  0  0  0  0  0  0  0  0  0  0  0
    1.0548    1.6880   -3.4451 H   0  0  0  0  0  0  0  0  0  0  0  0
   -1.0772   -0.0674    1.1524 H   0  0  0  0  0  0  0  0  0  0  0  0
   -0.6627    4.2145   -0.2312 H   0  0  0  0  0  0  0  0  0  0  0  0
   -0.8426    5.1743   -2.4626 H   0  0  0  0  0  0  0  0  0  0  0  0
   -1.9072    5.1707   -4.7029 H   0  0  0  0  0  0  0  0  0  0  0  0
   -3.5151    4.1985   -6.2527 H   0  0  0  0  0  0  0  0  0  0  0  0
   -4.9137    2.2912   -5.5851 H   0  0  0  0  0  0  0  0  0  0  0  0
   -4.7265    1.3248   -3.3572 H   0  0  0  0  0  0  0  0  0  0  0  0
   -3.6617    1.3283   -1.1167 H   0  0  0  0  0  0  0  0  0  0  0  0
    2.0660    2.5002    7.4242 H   0  0  0  0  0  0  0  0  0  0  0  0
    3.2670    3.6722    7.3410 H   0  0  0  0  0  0  0  0  0  0  0  0
    3.7166    3.4194    4.7957 N   0  3  0  0  0  0  0  0  0  0  0  0
    3.7806    3.2072    3.7931 H   0  0  0  0  0  0  0  0  0  0  0  0
  1 58  1  0  0  0  0
  2  3  1  0  0  0  0
  2 33  1  0  0  0  0
  2 58  2  0  0  0  0
  3  8  2  0  0  0  0
  3  4  1  0  0  0  0
  4  5  2  0  0  0  0
  4 34  1  0  0  0  0
  5  6  1  0  0  0  0
  5 35  1  0  0  0  0
  6  7  2  0  0  0  0
  6 36  1  0  0  0  0
  7  8  1  0  0  0  0
  7  9  1  0  0  0  0
  8 37  1  0  0  0  0
  9 10  1  0  0  0  0
  9 38  1  0  0  0  0
  9 39  1  0  0  0  0
 10 11  1  0  0  0  0
 10 12  1  0  0  0  0
 10 19  1  0  0  0  0
 12 13  2  0  0  0  0
 12 14  1  0  0  0  0
 14 18  1  0  0  0  0
 14 15  1  0  0  0  0
 15 16  1  0  0  0  0
 15 40  1  0  0  0  0
 15 41  1  0  0  0  0
 16 17  1  0  0  0  0
 16 42  1  0  0  0  0
 16 43  1  0  0  0  0
 17 18  1  0  0  0  0
 17 44  1  0  0  0  0
 17 45  1  0  0  0  0
 18 46  1  0  0  0  0
 18 47  1  0  0  0  0
 19 20  1  0  0  0  0
 19 48  1  0  0  0  0
 20 21  2  0  0  0  0
 20 22  2  0  0  0  0
 20 23  1  0  0  0  0
 23 32  2  0  0  0  0
 23 24  1  0  0  0  0
 24 25  2  0  0  0  0
 24 49  1  0  0  0  0
 25 26  1  0  0  0  0
 25 50  1  0  0  0  0
 26 31  2  0  0  0  0
 26 27  1  0  0  0  0
 27 28  2  0  0  0  0
 27 51  1  0  0  0  0
 28 29  1  0  0  0  0
 28 52  1  0  0  0  0
 29 30  2  0  0  0  0
 29 53  1  0  0  0  0
 30 31  1  0  0  0  0
 30 54  1  0  0  0  0
 31 32  1  0  0  0  0
 32 55  1  0  0  0  0
 33 56  1  0  0  0  0
 33 57  1  0  0  0  0
 58 59  1  0  0  0  0
M  CHG  1  58   1
M  END
$$$$
ZINC03834156
  -OEChem-08230709403D

 57 59  0     1  0  0  0  0  0999 V2000
    4.8581    2.2067    0.7804 H   0  0  0  0  0  0  0  0  0  0  0  0
    2.8893    2.6028    0.4471 C   0  0  0  0  0  0  0  0  0  0  0  0
    1.5819    1.9540    0.1966 C   0  0  0  0  0  0  0  0  0  0  0  0
    0.4371    2.7310    0.0198 C   0  0  0  0  0  0  0  0  0  0  0  0
   -0.7782    2.1206   -0.2133 C   0  0  0  0  0  0  0  0  0  0  0  0
   -0.8627    0.7409   -0.2718 C   0  0  0  0  0  0  0  0  0  0  0  0
    0.2692   -0.0349   -0.0977 C   0  0  0  0  0  0  0  0  0  0  0  0
    1.4904    0.5639    0.1360 C   0  0  0  0  0  0  0  0  0  0  0  0
    0.1686   -1.5371   -0.1640 C   0  0  0  0  0  0  0  0  0  0  0  0
    0.3844   -1.9996   -1.6063 C   0  0  1  0  0  0  0  0  0  0  0  0
    1.3557   -1.6516   -1.9580 H   0  0  0  0  0  0  0  0  0  0  0  0
    0.3394   -3.5049   -1.6633 C   0  0  0  0  0  0  0  0  0  0  0  0
   -0.5817   -4.0633   -2.2207 O   0  0  0  0  0  0  0  0  0  0  0  0
    1.3227   -4.2304   -1.0948 N   0  0  0  0  0  0  0  0  0  0  0  0
    1.3639   -5.6943   -1.2388 C   0  0  0  0  0  0  0  0  0  0  0  0
    2.7727   -6.0899   -1.7098 C   0  0  0  0  0  0  0  0  0  0  0  0
    3.7406   -5.5113   -0.8311 O   0  0  0  0  0  0  0  0  0  0  0  0
    3.7392   -4.0818   -0.8186 C   0  0  0  0  0  0  0  0  0  0  0  0
    2.3832   -3.5829   -0.3066 C   0  0  0  0  0  0  0  0  0  0  0  0
   -0.6704   -1.4468   -2.4594 N   0  0  0  0  0  0  0  0  0  0  0  0
   -0.3279   -1.0038   -4.0178 S   0  0  0  0  0  0  0  0  0  0  0  0
   -1.5448   -0.5373   -4.5843 O   0  0  0  0  0  0  0  0  0  0  0  0
    0.8440   -0.2020   -3.9639 O   0  0  0  0  0  0  0  0  0  0  0  0
    0.1052   -2.4704   -4.8932 C   0  0  0  0  0  0  0  0  0  0  0  0
    1.4241   -2.8815   -4.9431 C   0  0  0  0  0  0  0  0  0  0  0  0
    1.7632   -4.0345   -5.6261 C   0  0  0  0  0  0  0  0  0  0  0  0
    0.7849   -4.7712   -6.2672 C   0  0  0  0  0  0  0  0  0  0  0  0
   -0.5332   -4.3575   -6.2213 C   0  0  0  0  0  0  0  0  0  0  0  0
   -0.8731   -3.2069   -5.5346 C   0  0  0  0  0  0  0  0  0  0  0  0
    1.1554   -6.0255   -7.0157 C   0  0  0  0  0  0  0  0  0  0  0  0
    2.9765    3.9766    0.5063 N   0  0  0  0  0  0  0  0  0  0  0  0
    0.5019    3.8080    0.0649 H   0  0  0  0  0  0  0  0  0  0  0  0
   -1.6645    2.7213   -0.3547 H   0  0  0  0  0  0  0  0  0  0  0  0
   -1.8161    0.2677   -0.4545 H   0  0  0  0  0  0  0  0  0  0  0  0
    2.3734   -0.0429    0.2721 H   0  0  0  0  0  0  0  0  0  0  0  0
    0.9300   -1.9808    0.4776 H   0  0  0  0  0  0  0  0  0  0  0  0
   -0.8191   -1.8504    0.1741 H   0  0  0  0  0  0  0  0  0  0  0  0
    1.1494   -6.1638   -0.2787 H   0  0  0  0  0  0  0  0  0  0  0  0
    0.6265   -6.0116   -1.9760 H   0  0  0  0  0  0  0  0  0  0  0  0
    2.9365   -5.7242   -2.7234 H   0  0  0  0  0  0  0  0  0  0  0  0
    2.8697   -7.1755   -1.6944 H   0  0  0  0  0  0  0  0  0  0  0  0
    3.9066   -3.7088   -1.8290 H   0  0  0  0  0  0  0  0  0  0  0  0
    4.5311   -3.7227   -0.1612 H   0  0  0  0  0  0  0  0  0  0  0  0
    2.3210   -2.5012   -0.4263 H   0  0  0  0  0  0  0  0  0  0  0  0
    2.2692   -3.8428    0.7458 H   0  0  0  0  0  0  0  0  0  0  0  0
   -1.5696   -1.3404   -2.1114 H   0  0  0  0  0  0  0  0  0  0  0  0
    2.1890   -2.3037   -4.4456 H   0  0  0  0  0  0  0  0  0  0  0  0
    2.7931   -4.3579   -5.6617 H   0  0  0  0  0  0  0  0  0  0  0  0
   -1.2976   -4.9331   -6.7222 H   0  0  0  0  0  0  0  0  0  0  0  0
   -1.9029   -2.8835   -5.4991 H   0  0  0  0  0  0  0  0  0  0  0  0
    1.3883   -5.7756   -8.0508 H   0  0  0  0  0  0  0  0  0  0  0  0
    2.0266   -6.4841   -6.5479 H   0  0  0  0  0  0  0  0  0  0  0  0
    0.3192   -6.7244   -6.9900 H   0  0  0  0  0  0  0  0  0  0  0  0
    2.1815    4.5187    0.3840 H   0  0  0  0  0  0  0  0  0  0  0  0
    3.8328    4.4016    0.6704 H   0  0  0  0  0  0  0  0  0  0  0  0
    3.9359    1.8074    0.6055 N   0  3  0  0  0  0  0  0  0  0  0  0
    3.8192    0.7887    0.5523 H   0  0  0  0  0  0  0  0  0  0  0  0
  1 56  1  0  0  0  0
  2  3  1  0  0  0  0
  2 31  1  0  0  0  0
  2 56  2  0  0  0  0
  3  8  2  0  0  0  0
  3  4  1  0  0  0  0
  4  5  2  0  0  0  0
  4 32  1  0  0  0  0
  5  6  1  0  0  0  0
  5 33  1  0  0  0  0
  6  7  2  0  0  0  0
  6 34  1  0  0  0  0
  7  8  1  0  0  0  0
  7  9  1  0  0  0  0
  8 35  1  0  0  0  0
  9 10  1  0  0  0  0
  9 36  1  0  0  0  0
  9 37  1  0  0  0  0
 10 11  1  0  0  0  0
 10 12  1  0  0  0  0
 10 20  1  0  0  0  0
 12 13  2  0  0  0  0
 12 14  1  0  0  0  0
 14 19  1  0  0  0  0
 14 15  1  0  0  0  0
 15 16  1  0  0  0  0
 15 38  1  0  0  0  0
 15 39  1  0  0  0  0
 16 17  1  0  0  0  0
 16 40  1  0  0  0  0
 16 41  1  0  0  0  0
 17 18  1  0  0  0  0
 18 19  1  0  0  0  0
 18 42  1  0  0  0  0
 18 43  1  0  0  0  0
 19 44  1  0  0  0  0
 19 45  1  0  0  0  0
 20 21  1  0  0  0  0
 20 46  1  0  0  0  0
 21 22  2  0  0  0  0
 21 23  2  0  0  0  0
 21 24  1  0  0  0  0
 24 29  2  0  0  0  0
 24 25  1  0  0  0  0
 25 26  2  0  0  0  0
 25 47  1  0  0  0  0
 26 27  1  0  0  0  0
 26 48  1  0  0  0  0
 27 28  2  0  0  0  0
 27 30  1  0  0  0  0
 28 29  1  0  0  0  0
 28 49  1  0  0  0  0
 29 50  1  0  0  0  0
 30 51  1  0  0  0  0
 30 52  1  0  0  0  0
 30 53  1  0  0  0  0
 31 54  1  0  0  0  0
 31 55  1  0  0  0  0
 56 57  1  0  0  0  0
M  CHG  1  56   1
M  END
$$$$
ZINC03834157
  -OEChem-08230709403D

 88 90  0     1  0  0  0  0  0999 V2000
   -3.3944   -2.8628   -3.9965 H   0  0  0  0  0  0  0  0  0  0  0  0
   -1.8089   -2.6401   -5.2539 C   0  0  0  0  0  0  0  0  0  0  0  0
   -0.4077   -2.1646   -5.3121 C   0  0  0  0  0  0  0  0  0  0  0  0
    0.3053   -2.2316   -6.5091 C   0  0  0  0  0  0  0  0  0  0  0  0
    1.6105   -1.7871   -6.5570 C   0  0  0  0  0  0  0  0  0  0  0  0
    2.2124   -1.2760   -5.4208 C   0  0  0  0  0  0  0  0  0  0  0  0
    1.5104   -1.2066   -4.2311 C   0  0  0  0  0  0  0  0  0  0  0  0
    0.2060   -1.6529   -4.1694 C   0  0  0  0  0  0  0  0  0  0  0  0
    2.1732   -0.6482   -2.9983 C   0  0  0  0  0  0  0  0  0  0  0  0
    1.9354    0.8617   -2.9309 C   0  0  1  0  0  0  0  0  0  0  0  0
    0.8652    1.0633   -2.9769 H   0  0  0  0  0  0  0  0  0  0  0  0
    2.4931    1.4010   -1.6390 C   0  0  0  0  0  0  0  0  0  0  0  0
    3.5844    1.9300   -1.6235 O   0  0  0  0  0  0  0  0  0  0  0  0
    1.7793    1.2953   -0.5006 N   0  0  0  0  0  0  0  0  0  0  0  0
    0.4889    0.5919   -0.4895 C   0  0  0  0  0  0  0  0  0  0  0  0
    0.5450   -0.5081    0.5842 C   0  0  0  0  0  0  0  0  0  0  0  0
    1.0401    0.0833    1.8351 N   0  0  0  0  0  0  0  0  0  0  0  0
    2.3278    0.7915    1.8227 C   0  0  0  0  0  0  0  0  0  0  0  0
    2.2745    1.8867    0.7503 C   0  0  0  0  0  0  0  0  0  0  0  0
    0.1630   -0.0464    3.2338 S   0  0  0  0  0  0  0  0  0  0  0  0
   -0.6144   -1.2241    3.0662 O   0  0  0  0  0  0  0  0  0  0  0  0
    1.1257    0.0440    4.2751 O   0  0  0  0  0  0  0  0  0  0  0  0
   -0.9115    1.4150    3.2475 C   0  0  0  0  0  0  0  0  0  0  0  0
    2.6037    1.5123   -4.0606 N   0  0  0  0  0  0  0  0  0  0  0  0
    1.7072    2.2744   -5.2259 S   0  0  0  0  0  0  0  0  0  0  0  0
    2.6323    2.8695   -6.1255 O   0  0  0  0  0  0  0  0  0  0  0  0
    0.7207    1.3447   -5.6521 O   0  0  0  0  0  0  0  0  0  0  0  0
    0.8473    3.5964   -4.4402 C   0  0  0  0  0  0  0  0  0  0  0  0
    1.4556    4.8297   -4.2998 C   0  0  0  0  0  0  0  0  0  0  0  0
    0.7793    5.8682   -3.6872 C   0  0  0  0  0  0  0  0  0  0  0  0
   -0.5016    5.6705   -3.2065 C   0  0  0  0  0  0  0  0  0  0  0  0
   -1.1080    4.4358   -3.3425 C   0  0  0  0  0  0  0  0  0  0  0  0
   -0.4333    3.3986   -3.9590 C   0  0  0  0  0  0  0  0  0  0  0  0
   -1.0943    2.0523   -4.1069 C   0  0  0  0  0  0  0  0  0  0  0  0
   -2.0490    1.8213   -2.9339 C   0  0  0  0  0  0  0  0  0  0  0  0
   -1.8796    2.0112   -5.4193 C   0  0  0  0  0  0  0  0  0  0  0  0
   -1.2371    6.8012   -2.5344 C   0  0  0  0  0  0  0  0  0  0  0  0
   -0.4493    7.2639   -1.3071 C   0  0  0  0  0  0  0  0  0  0  0  0
   -1.3854    7.9669   -3.5144 C   0  0  0  0  0  0  0  0  0  0  0  0
    2.8541    5.0437   -4.8187 C   0  0  0  0  0  0  0  0  0  0  0  0
    2.7986    5.8537   -6.1156 C   0  0  0  0  0  0  0  0  0  0  0  0
    3.6741    5.8061   -3.7760 C   0  0  0  0  0  0  0  0  0  0  0  0
   -2.4109   -3.1500   -6.3836 N   0  0  0  0  0  0  0  0  0  0  0  0
   -0.1632   -2.6310   -7.3964 H   0  0  0  0  0  0  0  0  0  0  0  0
    2.1636   -1.8384   -7.4832 H   0  0  0  0  0  0  0  0  0  0  0  0
    3.2345   -0.9296   -5.4632 H   0  0  0  0  0  0  0  0  0  0  0  0
   -0.3399   -1.6023   -3.2388 H   0  0  0  0  0  0  0  0  0  0  0  0
    3.2444   -0.8457   -3.0407 H   0  0  0  0  0  0  0  0  0  0  0  0
    1.7510   -1.1224   -2.1123 H   0  0  0  0  0  0  0  0  0  0  0  0
   -0.3094    1.2959   -0.2545 H   0  0  0  0  0  0  0  0  0  0  0  0
    0.3086    0.1431   -1.4663 H   0  0  0  0  0  0  0  0  0  0  0  0
    1.2192   -1.3021    0.2629 H   0  0  0  0  0  0  0  0  0  0  0  0
   -0.4527   -0.9173    0.7428 H   0  0  0  0  0  0  0  0  0  0  0  0
    3.1289    0.0902    1.5897 H   0  0  0  0  0  0  0  0  0  0  0  0
    2.5092    1.2431    2.7981 H   0  0  0  0  0  0  0  0  0  0  0  0
    3.2734    2.2933    0.5925 H   0  0  0  0  0  0  0  0  0  0  0  0
    1.6018    2.6828    1.0700 H   0  0  0  0  0  0  0  0  0  0  0  0
   -1.5532    1.4024    2.3665 H   0  0  0  0  0  0  0  0  0  0  0  0
   -1.5281    1.4042    4.1463 H   0  0  0  0  0  0  0  0  0  0  0  0
   -0.2989    2.3165    3.2380 H   0  0  0  0  0  0  0  0  0  0  0  0
    3.5714    1.4967   -4.1261 H   0  0  0  0  0  0  0  0  0  0  0  0
    1.2530    6.8330   -3.5812 H   0  0  0  0  0  0  0  0  0  0  0  0
   -2.1088    4.2813   -2.9669 H   0  0  0  0  0  0  0  0  0  0  0  0
   -0.3328    1.2726   -4.1145 H   0  0  0  0  0  0  0  0  0  0  0  0
   -2.8674    2.5396   -2.9846 H   0  0  0  0  0  0  0  0  0  0  0  0
   -2.4502    0.8091   -2.9858 H   0  0  0  0  0  0  0  0  0  0  0  0
   -1.5097    1.9506   -1.9955 H   0  0  0  0  0  0  0  0  0  0  0  0
   -1.1994    2.1758   -6.2551 H   0  0  0  0  0  0  0  0  0  0  0  0
   -2.3576    1.0375   -5.5264 H   0  0  0  0  0  0  0  0  0  0  0  0
   -2.6412    2.7910   -5.4117 H   0  0  0  0  0  0  0  0  0  0  0  0
   -2.2245    6.4591   -2.2246 H   0  0  0  0  0  0  0  0  0  0  0  0
   -0.3437    6.4335   -0.6089 H   0  0  0  0  0  0  0  0  0  0  0  0
    0.5382    7.6060   -1.6168 H   0  0  0  0  0  0  0  0  0  0  0  0
   -0.9813    8.0817   -0.8211 H   0  0  0  0  0  0  0  0  0  0  0  0
   -1.9466    7.6373   -4.3888 H   0  0  0  0  0  0  0  0  0  0  0  0
   -1.9173    8.7847   -3.0283 H   0  0  0  0  0  0  0  0  0  0  0  0
   -0.3979    8.3090   -3.8241 H   0  0  0  0  0  0  0  0  0  0  0  0
    3.3212    4.0781   -5.0132 H   0  0  0  0  0  0  0  0  0  0  0  0
    2.4146    6.8517   -5.9044 H   0  0  0  0  0  0  0  0  0  0  0  0
    3.8002    5.9316   -6.5385 H   0  0  0  0  0  0  0  0  0  0  0  0
    2.1413    5.3547   -6.8277 H   0  0  0  0  0  0  0  0  0  0  0  0
    4.6856    5.9608   -4.1514 H   0  0  0  0  0  0  0  0  0  0  0  0
    3.2070    6.7716   -3.5816 H   0  0  0  0  0  0  0  0  0  0  0  0
    3.7137    5.2290   -2.8522 H   0  0  0  0  0  0  0  0  0  0  0  0
   -1.9168   -3.1974   -7.2170 H   0  0  0  0  0  0  0  0  0  0  0  0
   -3.3287   -3.4615   -6.3455 H   0  0  0  0  0  0  0  0  0  0  0  0
   -2.4282   -2.5483   -4.0872 N   0  3  0  0  0  0  0  0  0  0  0  0
   -1.9360   -2.1605   -3.2738 H   0  0  0  0  0  0  0  0  0  0  0  0
  1 87  1  0  0  0  0
  2  3  1  0  0  0  0
  2 43  1  0  0  0  0
  2 87  2  0  0  0  0
  3  8  2  0  0  0  0
  3  4  1  0  0  0  0
  4  5  2  0  0  0  0
  4 44  1  0  0  0  0
  5  6  1  0  0  0  0
  5 45  1  0  0  0  0
  6  7  2  0  0  0  0
  6 46  1  0  0  0  0
  7  8  1  0  0  0  0
  7  9  1  0  0  0  0
  8 47  1  0  0  0  0
  9 10  1  0  0  0  0
  9 48  1  0  0  0  0
  9 49  1  0  0  0  0
 10 11  1  0  0  0  0
 10 12  1  0  0  0  0
 10 24  1  0  0  0  0
 12 13  2  0  0  0  0
 12 14  1  0  0  0  0
 14 19  1  0  0  0  0
 14 15  1  0  0  0  0
 15 16  1  0  0  0  0
 15 50  1  0  0  0  0
 15 51  1  0  0  0  0
 16 17  1  0  0  0  0
 16 52  1  0  0  0  0
 16 53  1  0  0  0  0
 17 18  1  0  0  0  0
 17 20  1  0  0  0  0
 18 19  1  0  0  0  0
 18 54  1  0  0  0  0
 18 55  1  0  0  0  0
 19 56  1  0  0  0  0
 19 57  1  0  0  0  0
 20 21  2  0  0  0  0
 20 22  2  0  0  0  0
 20 23  1  0  0  0  0
 23 58  1  0  0  0  0
 23 59  1  0  0  0  0
 23 60  1  0  0  0  0
 24 25  1  0  0  0  0
 24 61  1  0  0  0  0
 25 26  2  0  0  0  0
 25 27  2  0  0  0  0
 25 28  1  0  0  0  0
 28 33  2  0  0  0  0
 28 29  1  0  0  0  0
 29 30  2  0  0  0  0
 29 40  1  0  0  0  0
 30 31  1  0  0  0  0
 30 62  1  0  0  0  0
 31 32  2  0  0  0  0
 31 37  1  0  0  0  0
 32 33  1  0  0  0  0
 32 63  1  0  0  0  0
 33 34  1  0  0  0  0
 34 35  1  0  0  0  0
 34 36  1  0  0  0  0
 34 64  1  0  0  0  0
 35 65  1  0  0  0  0
 35 66  1  0  0  0  0
 35 67  1  0  0  0  0
 36 68  1  0  0  0  0
 36 69  1  0  0  0  0
 36 70  1  0  0  0  0
 37 38  1  0  0  0  0
 37 39  1  0  0  0  0
 37 71  1  0  0  0  0
 38 72  1  0  0  0  0
 38 73  1  0  0  0  0
 38 74  1  0  0  0  0
 39 75  1  0  0  0  0
 39 76  1  0  0  0  0
 39 77  1  0  0  0  0
 40 41  1  0  0  0  0
 40 42  1  0  0  0  0
 40 78  1  0  0  0  0
 41 79  1  0  0  0  0
 41 80  1  0  0  0  0
 41 81  1  0  0  0  0
 42 82  1  0  0  0  0
 42 83  1  0  0  0  0
 42 84  1  0  0  0  0
 43 85  1  0  0  0  0
 43 86  1  0  0  0  0
 87 88  1  0  0  0  0
M  CHG  1  87   1
M  END
$$$$
ZINC03834158
  -OEChem-08230709403D

 33 34  0     0  0  0  0  0  0999 V2000
   -3.5106   -7.0840    7.2955 C   0  0  0  0  0  0  0  0  0  0  0  0
   -3.6122   -6.2617    6.0093 C   0  0  0  0  0  0  0  0  0  0  0  0
   -2.4363   -5.4635    5.8601 O   0  0  0  0  0  0  0  0  0  0  0  0
   -2.3665   -4.6707    4.7647 C   0  0  0  0  0  0  0  0  0  0  0  0
   -1.2698   -3.9017    4.5896 C   0  0  0  0  0  0  0  0  0  0  0  0
   -1.1828   -3.0413    3.4106 C   0  0  0  0  0  0  0  0  0  0  0  0
   -0.0797   -2.2215    3.1662 C   0  0  0  0  0  0  0  0  0  0  0  0
   -0.0559   -1.4443    2.0418 C   0  0  0  0  0  0  0  0  0  0  0  0
   -1.1185   -1.4512    1.1465 C   0  0  0  0  0  0  0  0  0  0  0  0
   -2.2122   -2.2439    1.3595 C   0  0  0  0  0  0  0  0  0  0  0  0
   -2.2630   -3.0523    2.4950 C   0  0  0  0  0  0  0  0  0  0  0  0
   -3.4041   -3.9251    2.7828 C   0  0  0  0  0  0  0  0  0  0  0  0
   -4.3541   -3.9666    2.0232 O   0  0  0  0  0  0  0  0  0  0  0  0
   -3.3896   -4.6805    3.8956 O   0  0  0  0  0  0  0  0  0  0  0  0
   -1.0663   -0.6404    0.0088 N   0  0  0  0  0  0  0  0  0  0  0  0
   -1.8420    0.0047    0.0197 H   0  0  0  0  0  0  0  0  0  0  0  0
   -1.1197   -1.2168   -0.8177 H   0  0  0  0  0  0  0  0  0  0  0  0
    0.0021   -0.0041    0.0020 C   0  0  0  0  0  0  0  0  0  0  0  0
   -0.0169    1.3916    0.0097 N   0  0  0  0  0  0  0  0  0  0  0  0
    1.2202   -0.6855   -0.0133 N   0  0  0  0  0  0  0  0  0  0  0  0
    0.0204   -3.9340    5.7507 Cl  0  0  0  0  0  0  0  0  0  0  0  0
   -2.6356   -7.7320    7.2443 H   0  0  0  0  0  0  0  0  0  0  0  0
   -3.4162   -6.4129    8.1493 H   0  0  0  0  0  0  0  0  0  0  0  0
   -4.4075   -7.6928    7.4093 H   0  0  0  0  0  0  0  0  0  0  0  0
   -4.4871   -5.6136    6.0605 H   0  0  0  0  0  0  0  0  0  0  0  0
   -3.7066   -6.9327    5.1555 H   0  0  0  0  0  0  0  0  0  0  0  0
    0.7500   -2.2047    3.8574 H   0  0  0  0  0  0  0  0  0  0  0  0
    0.7988   -0.8130    1.8488 H   0  0  0  0  0  0  0  0  0  0  0  0
   -3.0299   -2.2443    0.6540 H   0  0  0  0  0  0  0  0  0  0  0  0
    0.8165    1.8880    0.0044 H   0  0  0  0  0  0  0  0  0  0  0  0
   -0.8634    1.8652    0.0163 H   0  0  0  0  0  0  0  0  0  0  0  0
    2.0536   -0.1891   -0.0186 H   0  0  0  0  0  0  0  0  0  0  0  0
    1.2334   -1.6554   -0.0186 H   0  0  0  0  0  0  0  0  0  0  0  0
  1  2  1  0  0  0  0
  1 22  1  0  0  0  0
  1 23  1  0  0  0  0
  1 24  1  0  0  0  0
  2  3  1  0  0  0  0
  2 25  1  0  0  0  0
  2 26  1  0  0  0  0
  3  4  1  0  0  0  0
  4 14  1  0  0  0  0
  4  5  2  0  0  0  0
  5  6  1  0  0  0  0
  5 21  1  0  0  0  0
  6 11  2  0  0  0  0
  6  7  1  0  0  0  0
  7  8  2  0  0  0  0
  7 27  1  0  0  0  0
  8  9  1  0  0  0  0
  8 28  1  0  0  0  0
  9 10  2  0  0  0  0
  9 15  1  0  0  0  0
 10 11  1  0  0  0  0
 10 29  1  0  0  0  0
 11 12  1  0  0  0  0
 12 13  2  0  0  0  0
 12 14  1  0  0  0  0
 15 16  1  0  0  0  0
 15 17  1  0  0  0  0
 15 18  2  0  0  0  0
 18 19  1  0  0  0  0
 18 20  1  0  0  0  0
 19 30  1  0  0  0  0
 19 31  1  0  0  0  0
 20 32  1  0  0  0  0
 20 33  1  0  0  0  0
M  END
$$$$
ZINC03834160
  -OEChem-08230709403D

 35 37  0     0  0  0  0  0  0999 V2000
   -4.4269    4.0899    0.0675 H   0  0  0  0  0  0  0  0  0  0  0  0
   -3.9796    2.1033    0.0520 C   0  0  0  0  0  0  0  0  0  0  0  0
   -2.8476    1.1506    0.0361 C   0  0  0  0  0  0  0  0  0  0  0  0
   -3.0937   -0.2282    0.0305 C   0  0  0  0  0  0  0  0  0  0  0  0
   -2.0614   -1.1194    0.0158 C   0  0  0  0  0  0  0  0  0  0  0  0
   -0.7441   -0.6665    0.0052 C   0  0  0  0  0  0  0  0  0  0  0  0
   -0.4839    0.7174    0.0103 C   0  0  0  0  0  0  0  0  0  0  0  0
   -1.5412    1.6250    0.0303 C   0  0  0  0  0  0  0  0  0  0  0  0
    0.9750    0.8553   -0.0031 C   0  0  0  0  0  0  0  0  0  0  0  0
    1.4850   -0.3860   -0.0147 C   0  0  0  0  0  0  0  0  0  0  0  0
    0.4728   -1.3068   -0.0100 N   0  0  0  0  0  0  0  0  0  0  0  0
    0.5954   -2.2690   -0.0161 H   0  0  0  0  0  0  0  0  0  0  0  0
    2.9552   -0.7169   -0.0302 C   0  0  0  0  0  0  0  0  0  0  0  0
    3.4593   -0.6986   -1.4502 C   0  0  0  0  0  0  0  0  0  0  0  0
    3.4328   -1.8544   -2.2080 C   0  0  0  0  0  0  0  0  0  0  0  0
    3.8908   -1.8364   -3.5123 C   0  0  0  0  0  0  0  0  0  0  0  0
    4.3849   -0.6651   -4.0551 C   0  0  0  0  0  0  0  0  0  0  0  0
    4.4162    0.4894   -3.2956 C   0  0  0  0  0  0  0  0  0  0  0  0
    3.9534    0.4727   -1.9931 C   0  0  0  0  0  0  0  0  0  0  0  0
   -5.2752    1.6338    0.0615 N   0  0  0  0  0  0  0  0  0  0  0  0
   -4.1115   -0.5894    0.0383 H   0  0  0  0  0  0  0  0  0  0  0  0
   -2.2659   -2.1799    0.0120 H   0  0  0  0  0  0  0  0  0  0  0  0
   -1.3473    2.6874    0.0346 H   0  0  0  0  0  0  0  0  0  0  0  0
    1.5335    1.7798   -0.0037 H   0  0  0  0  0  0  0  0  0  0  0  0
    3.5000    0.0212    0.5584 H   0  0  0  0  0  0  0  0  0  0  0  0
    3.1091   -1.7078    0.3973 H   0  0  0  0  0  0  0  0  0  0  0  0
    3.0508   -2.7705   -1.7824 H   0  0  0  0  0  0  0  0  0  0  0  0
    3.8666   -2.7386   -4.1055 H   0  0  0  0  0  0  0  0  0  0  0  0
    4.7468   -0.6521   -5.0726 H   0  0  0  0  0  0  0  0  0  0  0  0
    4.8027    1.4045   -3.7197 H   0  0  0  0  0  0  0  0  0  0  0  0
    3.9782    1.3747   -1.3995 H   0  0  0  0  0  0  0  0  0  0  0  0
   -5.4450    0.6788    0.0576 H   0  0  0  0  0  0  0  0  0  0  0  0
   -6.0173    2.2584    0.0719 H   0  0  0  0  0  0  0  0  0  0  0  0
   -3.6811    3.3940    0.0566 N   0  3  0  0  0  0  0  0  0  0  0  0
   -2.6992    3.6939    0.0491 H   0  0  0  0  0  0  0  0  0  0  0  0
  1 34  1  0  0  0  0
  2  3  1  0  0  0  0
  2 20  1  0  0  0  0
  2 34  2  0  0  0  0
  3  8  2  0  0  0  0
  3  4  1  0  0  0  0
  4  5  2  0  0  0  0
  4 21  1  0  0  0  0
  5  6  1  0  0  0  0
  5 22  1  0  0  0  0
  6 11  1  0  0  0  0
  6  7  2  0  0  0  0
  7  8  1  0  0  0  0
  7  9  1  0  0  0  0
  8 23  1  0  0  0  0
  9 10  2  0  0  0  0
  9 24  1  0  0  0  0
 10 11  1  0  0  0  0
 10 13  1  0  0  0  0
 11 12  1  0  0  0  0
 13 14  1  0  0  0  0
 13 25  1  0  0  0  0
 13 26  1  0  0  0  0
 14 19  2  0  0  0  0
 14 15  1  0  0  0  0
 15 16  2  0  0  0  0
 15 27  1  0  0  0  0
 16 17  1  0  0  0  0
 16 28  1  0  0  0  0
 17 18  2  0  0  0  0
 17 29  1  0  0  0  0
 18 19  1  0  0  0  0
 18 30  1  0  0  0  0
 19 31  1  0  0  0  0
 20 32  1  0  0  0  0
 20 33  1  0  0  0  0
 34 35  1  0  0  0  0
M  CHG  1  34   1
M  END
$$$$
ZINC03834161
  -OEChem-08230709403D

 58 63  0     1  0  0  0  0  0999 V2000
    8.2055   -0.1975    4.4376 H   0  0  0  0  0  0  0  0  0  0  0  0
    7.2274    1.1758    3.2967 C   0  0  0  0  0  0  0  0  0  0  0  0
    6.0549    1.3517    2.4094 C   0  0  0  0  0  0  0  0  0  0  0  0
    5.2015    0.2782    2.1560 C   0  0  0  0  0  0  0  0  0  0  0  0
    4.1103    0.4484    1.3287 C   0  0  0  0  0  0  0  0  0  0  0  0
    3.8619    1.6808    0.7515 C   0  0  0  0  0  0  0  0  0  0  0  0
    4.7080    2.7479    0.9945 C   0  0  0  0  0  0  0  0  0  0  0  0
    5.7995    2.5915    1.8241 C   0  0  0  0  0  0  0  0  0  0  0  0
    2.6682    1.8600   -0.1507 C   0  0  2  0  0  0  0  0  0  0  0  0
    2.8965    1.5018   -1.1546 H   0  0  0  0  0  0  0  0  0  0  0  0
    2.2465    3.3423   -0.1950 C   0  0  2  0  0  0  0  0  0  0  0  0
    2.6318    3.9135    0.6496 H   0  0  0  0  0  0  0  0  0  0  0  0
    0.6963    3.3149   -0.2464 C   0  0  2  0  0  0  0  0  0  0  0  0
    0.2395    3.8828    0.5639 H   0  0  0  0  0  0  0  0  0  0  0  0
    0.3155    1.8239   -0.2067 C   0  0  2  0  0  0  0  0  0  0  0  0
    0.0711    1.4341   -1.1948 H   0  0  0  0  0  0  0  0  0  0  0  0
    1.3819    1.4091    1.8508 C   0  0  0  0  0  0  0  0  0  0  0  0
   -0.1284    1.3361    2.1553 C   0  0  0  0  0  0  0  0  0  0  0  0
   -0.8245    1.6214    0.8098 C   0  0  0  0  0  0  0  0  0  0  0  0
    0.3809    3.8792   -1.6133 C   0  0  0  0  0  0  0  0  0  0  0  0
   -0.7320    4.0293   -2.0699 O   0  0  0  0  0  0  0  0  0  0  0  0
    1.5224    4.1868   -2.2403 N   0  0  0  0  0  0  0  0  0  0  0  0
    2.6302    3.9283   -1.5356 C   0  0  0  0  0  0  0  0  0  0  0  0
    3.7641    4.1319   -1.9127 O   0  0  0  0  0  0  0  0  0  0  0  0
    1.5565    4.7595   -3.5882 C   0  0  0  0  0  0  0  0  0  0  0  0
    1.6166    3.6485   -4.6047 C   0  0  0  0  0  0  0  0  0  0  0  0
    2.8248    3.3057   -5.1833 C   0  0  0  0  0  0  0  0  0  0  0  0
    2.8837    2.2870   -6.1155 C   0  0  0  0  0  0  0  0  0  0  0  0
    1.7346    1.6060   -6.4734 C   0  0  0  0  0  0  0  0  0  0  0  0
    0.5210    1.9436   -5.8978 C   0  0  0  0  0  0  0  0  0  0  0  0
    0.4624    2.9675   -4.9548 C   0  0  0  0  0  0  0  0  0  0  0  0
   -0.8316    3.1086   -4.5442 O   0  0  0  0  0  0  0  0  0  0  0  0
   -1.6272    2.4342   -5.5369 C   0  0  0  0  0  0  0  0  0  0  0  0
   -0.7351    1.4386   -6.0718 O   0  0  0  0  0  0  0  0  0  0  0  0
    8.0688    2.2382    3.5451 N   0  0  0  0  0  0  0  0  0  0  0  0
    5.3940   -0.6842    2.6066 H   0  0  0  0  0  0  0  0  0  0  0  0
    3.4487   -0.3822    1.1317 H   0  0  0  0  0  0  0  0  0  0  0  0
    4.5115    3.7065    0.5375 H   0  0  0  0  0  0  0  0  0  0  0  0
    6.4566    3.4265    2.0170 H   0  0  0  0  0  0  0  0  0  0  0  0
    1.9199    0.6515    2.4205 H   0  0  0  0  0  0  0  0  0  0  0  0
    1.7687    2.4015    2.0826 H   0  0  0  0  0  0  0  0  0  0  0  0
   -0.3941    0.3422    2.5154 H   0  0  0  0  0  0  0  0  0  0  0  0
   -0.4030    2.0919    2.8910 H   0  0  0  0  0  0  0  0  0  0  0  0
   -1.4301    2.5248    0.8824 H   0  0  0  0  0  0  0  0  0  0  0  0
   -1.4439    0.7733    0.5182 H   0  0  0  0  0  0  0  0  0  0  0  0
    0.6583    5.3546   -3.7530 H   0  0  0  0  0  0  0  0  0  0  0  0
    2.4367    5.3941   -3.6913 H   0  0  0  0  0  0  0  0  0  0  0  0
    3.7245    3.8349   -4.9059 H   0  0  0  0  0  0  0  0  0  0  0  0
    3.8292    2.0222   -6.5652 H   0  0  0  0  0  0  0  0  0  0  0  0
    1.7837    0.8102   -7.2020 H   0  0  0  0  0  0  0  0  0  0  0  0
   -1.9368    3.1297   -6.3169 H   0  0  0  0  0  0  0  0  0  0  0  0
   -2.4953    1.9626   -5.0763 H   0  0  0  0  0  0  0  0  0  0  0  0
    7.8932    3.1014    3.1388 H   0  0  0  0  0  0  0  0  0  0  0  0
    8.8368    2.1231    4.1264 H   0  0  0  0  0  0  0  0  0  0  0  0
    7.4119   -0.0263    3.8199 N   0  3  0  0  0  0  0  0  0  0  0  0
    6.7561   -0.7864    3.6041 H   0  0  0  0  0  0  0  0  0  0  0  0
    1.4743    1.1952    0.3936 N   0  3  2  0  0  0  0  0  0  0  0  0
    1.4985    0.1908    0.1816 H   0  0  0  0  0  0  0  0  0  0  0  0
  1 55  1  0  0  0  0
  2  3  1  0  0  0  0
  2 35  1  0  0  0  0
  2 55  2  0  0  0  0
  3  8  2  0  0  0  0
  3  4  1  0  0  0  0
  4  5  2  0  0  0  0
  4 36  1  0  0  0  0
  5  6  1  0  0  0  0
  5 37  1  0  0  0  0
  6  7  2  0  0  0  0
  6  9  1  0  0  0  0
  7  8  1  0  0  0  0
  7 38  1  0  0  0  0
  8 39  1  0  0  0  0
  9 10  1  0  0  0  0
  9 11  1  0  0  0  0
  9 57  1  0  0  0  0
 11 12  1  0  0  0  0
 11 23  1  0  0  0  0
 11 13  1  0  0  0  0
 13 14  1  0  0  0  0
 13 15  1  0  0  0  0
 13 20  1  0  0  0  0
 15 16  1  0  0  0  0
 15 19  1  0  0  0  0
 15 57  1  0  0  0  0
 17 18  1  0  0  0  0
 17 40  1  0  0  0  0
 17 41  1  0  0  0  0
 17 57  1  0  0  0  0
 18 19  1  0  0  0  0
 18 42  1  0  0  0  0
 18 43  1  0  0  0  0
 19 44  1  0  0  0  0
 19 45  1  0  0  0  0
 20 21  2  0  0  0  0
 20 22  1  0  0  0  0
 22 23  1  0  0  0  0
 22 25  1  0  0  0  0
 23 24  2  0  0  0  0
 25 26  1  0  0  0  0
 25 46  1  0  0  0  0
 25 47  1  0  0  0  0
 26 31  2  0  0  0  0
 26 27  1  0  0  0  0
 27 28  2  0  0  0  0
 27 48  1  0  0  0  0
 28 29  1  0  0  0  0
 28 49  1  0  0  0  0
 29 30  2  0  0  0  0
 29 50  1  0  0  0  0
 30 34  1  0  0  0  0
 30 31  1  0  0  0  0
 31 32  1  0  0  0  0
 32 33  1  0  0  0  0
 33 34  1  0  0  0  0
 33 51  1  0  0  0  0
 33 52  1  0  0  0  0
 35 53  1  0  0  0  0
 35 54  1  0  0  0  0
 55 56  1  0  0  0  0
 57 58  1  0  0  0  0
M  CHG  2  55   1  57   1
M  END
$$$$
ZINC03834162
  -OEChem-08230709403D

 54 56  0     0  0  0  0  0  0999 V2000
   -2.2308    5.7736    3.8503 C   0  0  0  0  0  0  0  0  0  0  0  0
   -1.5383    5.2156    2.6337 C   0  0  0  0  0  0  0  0  0  0  0  0
   -1.4308    3.8479    2.4677 C   0  0  0  0  0  0  0  0  0  0  0  0
   -0.7934    3.3317    1.3486 C   0  0  0  0  0  0  0  0  0  0  0  0
   -0.2593    4.1894    0.3990 C   0  0  0  0  0  0  0  0  0  0  0  0
   -0.3731    5.5608    0.5652 C   0  0  0  0  0  0  0  0  0  0  0  0
   -1.0117    6.0723    1.6863 C   0  0  0  0  0  0  0  0  0  0  0  0
    0.1444    6.4040   -0.3666 O   0  0  0  0  0  0  0  0  0  0  0  0
    1.5907    6.8007   -0.1073 S   0  0  0  0  0  0  0  0  0  0  0  0
    1.9028    7.8287   -1.0374 O   0  0  0  0  0  0  0  0  0  0  0  0
    1.7173    6.9795    1.2967 O   0  0  0  0  0  0  0  0  0  0  0  0
    2.5947    5.4162   -0.5312 C   0  0  0  0  0  0  0  0  0  0  0  0
    2.9042    4.4679    0.4258 C   0  0  0  0  0  0  0  0  0  0  0  0
    3.6882    3.3794    0.0924 C   0  0  0  0  0  0  0  0  0  0  0  0
    4.1713    3.2435   -1.1960 C   0  0  0  0  0  0  0  0  0  0  0  0
    3.8670    4.1937   -2.1522 C   0  0  0  0  0  0  0  0  0  0  0  0
    3.0781    5.2810   -1.8202 C   0  0  0  0  0  0  0  0  0  0  0  0
    2.6958    6.4753   -3.0207 Cl  0  0  0  0  0  0  0  0  0  0  0  0
   -0.6875    1.9866    1.1861 O   0  0  0  0  0  0  0  0  0  0  0  0
   -0.0187    1.5258    0.0104 C   0  0  0  0  0  0  0  0  0  0  0  0
    0.0021   -0.0041    0.0020 C   0  0  0  0  0  0  0  0  0  0  0  0
    0.8464   -0.5090    1.1743 C   0  0  0  0  0  0  0  0  0  0  0  0
    0.8365   -2.0408    1.1831 C   0  0  0  0  0  0  0  0  0  0  0  0
    1.2794   -2.5241   -0.1318 N   0  3  0  0  0  0  0  0  0  0  0  0
    2.2623   -3.3745   -0.2302 C   0  0  0  0  0  0  0  0  0  0  0  0
    3.3180   -3.3097    0.6481 N   0  0  0  0  0  0  0  0  0  0  0  0
    2.2434   -4.3363   -1.2124 N   0  0  0  0  0  0  0  0  0  0  0  0
    0.5936   -2.0303   -1.3337 C   0  0  0  0  0  0  0  0  0  0  0  0
    0.6062   -0.4985   -1.3143 C   0  0  0  0  0  0  0  0  0  0  0  0
   -1.5028    5.9172    4.6488 H   0  0  0  0  0  0  0  0  0  0  0  0
   -2.6895    6.7303    3.6005 H   0  0  0  0  0  0  0  0  0  0  0  0
   -3.0008    5.0770    4.1816 H   0  0  0  0  0  0  0  0  0  0  0  0
   -1.8436    3.1803    3.2095 H   0  0  0  0  0  0  0  0  0  0  0  0
    0.2408    3.7895   -0.4707 H   0  0  0  0  0  0  0  0  0  0  0  0
   -1.0972    7.1408    1.8181 H   0  0  0  0  0  0  0  0  0  0  0  0
    2.5305    4.5756    1.4333 H   0  0  0  0  0  0  0  0  0  0  0  0
    3.9269    2.6370    0.8395 H   0  0  0  0  0  0  0  0  0  0  0  0
    4.7870    2.3948   -1.4550 H   0  0  0  0  0  0  0  0  0  0  0  0
    4.2450    4.0878   -3.1583 H   0  0  0  0  0  0  0  0  0  0  0  0
    1.0039    1.9031    0.0027 H   0  0  0  0  0  0  0  0  0  0  0  0
   -0.5459    1.8868   -0.8726 H   0  0  0  0  0  0  0  0  0  0  0  0
   -1.0159   -0.3816    0.0988 H   0  0  0  0  0  0  0  0  0  0  0  0
    1.8706   -0.1524    1.0651 H   0  0  0  0  0  0  0  0  0  0  0  0
    0.4290   -0.1371    2.1100 H   0  0  0  0  0  0  0  0  0  0  0  0
   -0.1736   -2.3986    1.3826 H   0  0  0  0  0  0  0  0  0  0  0  0
    1.5148   -2.4062    1.9541 H   0  0  0  0  0  0  0  0  0  0  0  0
    3.3313   -2.6311    1.3411 H   0  0  0  0  0  0  0  0  0  0  0  0
    4.0494   -3.9425    0.5749 H   0  0  0  0  0  0  0  0  0  0  0  0
    1.4986   -4.3821   -1.8322 H   0  0  0  0  0  0  0  0  0  0  0  0
    2.9749   -4.9692   -1.2857 H   0  0  0  0  0  0  0  0  0  0  0  0
   -0.4363   -2.3872   -1.3394 H   0  0  0  0  0  0  0  0  0  0  0  0
    1.1116   -2.3887   -2.2232 H   0  0  0  0  0  0  0  0  0  0  0  0
    0.0179   -0.1192   -2.1498 H   0  0  0  0  0  0  0  0  0  0  0  0
    1.6325   -0.1416   -1.4003 H   0  0  0  0  0  0  0  0  0  0  0  0
  1  2  1  0  0  0  0
  1 30  1  0  0  0  0
  1 31  1  0  0  0  0
  1 32  1  0  0  0  0
  2  7  2  0  0  0  0
  2  3  1  0  0  0  0
  3  4  2  0  0  0  0
  3 33  1  0  0  0  0
  4  5  1  0  0  0  0
  4 19  1  0  0  0  0
  5  6  2  0  0  0  0
  5 34  1  0  0  0  0
  6  7  1  0  0  0  0
  6  8  1  0  0  0  0
  7 35  1  0  0  0  0
  8  9  1  0  0  0  0
  9 10  2  0  0  0  0
  9 11  2  0  0  0  0
  9 12  1  0  0  0  0
 12 17  2  0  0  0  0
 12 13  1  0  0  0  0
 13 14  2  0  0  0  0
 13 36  1  0  0  0  0
 14 15  1  0  0  0  0
 14 37  1  0  0  0  0
 15 16  2  0  0  0  0
 15 38  1  0  0  0  0
 16 17  1  0  0  0  0
 16 39  1  0  0  0  0
 17 18  1  0  0  0  0
 19 20  1  0  0  0  0
 20 21  1  0  0  0  0
 20 40  1  0  0  0  0
 20 41  1  0  0  0  0
 21 29  1  0  0  0  0
 21 22  1  0  0  0  0
 21 42  1  0  0  0  0
 22 23  1  0  0  0  0
 22 43  1  0  0  0  0
 22 44  1  0  0  0  0
 23 24  1  0  0  0  0
 23 45  1  0  0  0  0
 23 46  1  0  0  0  0
 24 25  2  0  0  0  0
 24 28  1  0  0  0  0
 25 26  1  0  0  0  0
 25 27  1  0  0  0  0
 26 47  1  0  0  0  0
 26 48  1  0  0  0  0
 27 49  1  0  0  0  0
 27 50  1  0  0  0  0
 28 29  1  0  0  0  0
 28 51  1  0  0  0  0
 28 52  1  0  0  0  0
 29 53  1  0  0  0  0
 29 54  1  0  0  0  0
M  CHG  1  24   1
M  END
$$$$
ZINC04617937
  -OEChem-08230709403D

 34 36  0     0  0  0  0  0  0999 V2000
    1.1821    1.7711    0.0003 C   0  0  0  0  0  0  0  0  0  0  0  0
    1.1638    3.1558    0.0079 C   0  0  0  0  0  0  0  0  0  0  0  0
   -0.0751    3.8034    0.0232 C   0  0  0  0  0  0  0  0  0  0  0  0
   -1.2433    3.0278    0.0298 C   0  0  0  0  0  0  0  0  0  0  0  0
   -1.1707    1.7084    0.0161 N   0  0  0  0  0  0  0  0  0  0  0  0
   -0.0126    1.0758    0.0071 C   0  0  0  0  0  0  0  0  0  0  0  0
   -2.4548    3.6354    0.0445 O   0  0  0  0  0  0  0  0  0  0  0  0
   -0.1521    5.2788    0.0323 C   0  0  0  0  0  0  0  0  0  0  0  0
   -1.3115    6.0068    0.0474 N   0  0  0  0  0  0  0  0  0  0  0  0
   -2.2421    5.6407    0.0538 H   0  0  0  0  0  0  0  0  0  0  0  0
   -0.9555    7.3418    0.0522 C   0  0  0  0  0  0  0  0  0  0  0  0
   -1.6727    8.5299    0.0666 C   0  0  0  0  0  0  0  0  0  0  0  0
   -1.0006    9.7342    0.0684 C   0  0  0  0  0  0  0  0  0  0  0  0
    0.3867    9.7656    0.0559 C   0  0  0  0  0  0  0  0  0  0  0  0
    1.1099    8.6068    0.0411 C   0  0  0  0  0  0  0  0  0  0  0  0
    0.4502    7.3735    0.0395 C   0  0  0  0  0  0  0  0  0  0  0  0
    0.8796    6.0879    0.0330 N   0  0  0  0  0  0  0  0  0  0  0  0
   -1.7781   11.0250    0.0835 C   0  0  0  0  0  0  0  0  0  0  0  0
    2.1218    1.2390   -0.0109 H   0  0  0  0  0  0  0  0  0  0  0  0
    2.0838    3.7214    0.0022 H   0  0  0  0  0  0  0  0  0  0  0  0
    0.0021   -0.0041    0.0051 H   0  0  0  0  0  0  0  0  0  0  0  0
   -2.0164    1.1748    0.0126 H   0  0  0  0  0  0  0  0  0  0  0  0
   -2.7525    8.5115    0.0760 H   0  0  0  0  0  0  0  0  0  0  0  0
    0.8998   10.7159    0.0574 H   0  0  0  0  0  0  0  0  0  0  0  0
    2.1892    8.6429    0.0315 H   0  0  0  0  0  0  0  0  0  0  0  0
   -1.9565   11.3296    1.1148 H   0  0  0  0  0  0  0  0  0  0  0  0
   -1.5101   12.9439   -0.6125 H   0  0  0  0  0  0  0  0  0  0  0  0
   -0.0944   12.1758   -0.1980 H   0  0  0  0  0  0  0  0  0  0  0  0
   -2.9258   10.5469   -1.5575 H   0  0  0  0  0  0  0  0  0  0  0  0
   -3.6386   10.1637   -0.1045 H   0  0  0  0  0  0  0  0  0  0  0  0
   -1.0083   12.0576   -0.6323 N   0  3  0  0  0  0  0  0  0  0  0  0
   -0.8801   11.7669   -1.6086 H   0  0  0  0  0  0  0  0  0  0  0  0
   -3.0737   10.8534   -0.5973 N   0  3  0  0  0  0  0  0  0  0  0  0
   -3.5723   11.7509   -0.6052 H   0  0  0  0  0  0  0  0  0  0  0  0
  1 19  1  0  0  0  0
  1  2  1  0  0  0  0
  1  6  2  0  0  0  0
  2 20  1  0  0  0  0
  2  3  2  0  0  0  0
  3  8  1  0  0  0  0
  3  4  1  0  0  0  0
  4  5  1  0  0  0  0
  4  7  2  0  0  0  0
  5 22  1  0  0  0  0
  5  6  1  0  0  0  0
  6 21  1  0  0  0  0
  8 17  2  0  0  0  0
  8  9  1  0  0  0  0
  9 10  1  0  0  0  0
  9 11  1  0  0  0  0
 11 16  2  0  0  0  0
 11 12  1  0  0  0  0
 12 13  2  0  0  0  0
 12 23  1  0  0  0  0
 13 14  1  0  0  0  0
 13 18  1  0  0  0  0
 14 15  2  0  0  0  0
 14 24  1  0  0  0  0
 15 16  1  0  0  0  0
 15 25  1  0  0  0  0
 16 17  1  0  0  0  0
 18 26  1  0  0  0  0
 18 31  1  0  0  0  0
 18 33  1  0  0  0  0
 27 31  1  0  0  0  0
 28 31  1  0  0  0  0
 29 33  1  0  0  0  0
 30 33  1  0  0  0  0
 31 32  1  0  0  0  0
 33 34  1  0  0  0  0
M  CHG  2  31   1  33   1
M  END
$$$$
ZINC04617937
  -OEChem-08230709403D

 34 36  0     0  0  0  0  0  0999 V2000
    1.1821    1.7711    0.0002 C   0  0  0  0  0  0  0  0  0  0  0  0
    1.1638    3.1558    0.0079 C   0  0  0  0  0  0  0  0  0  0  0  0
   -0.0751    3.8034    0.0232 C   0  0  0  0  0  0  0  0  0  0  0  0
   -1.2433    3.0278    0.0298 C   0  0  0  0  0  0  0  0  0  0  0  0
   -1.1707    1.7084    0.0161 N   0  0  0  0  0  0  0  0  0  0  0  0
   -0.0126    1.0758    0.0070 C   0  0  0  0  0  0  0  0  0  0  0  0
   -2.4547    3.6354    0.0504 O   0  0  0  0  0  0  0  0  0  0  0  0
   -0.1521    5.2788    0.0323 C   0  0  0  0  0  0  0  0  0  0  0  0
   -1.3115    6.0068    0.0474 N   0  0  0  0  0  0  0  0  0  0  0  0
   -2.2421    5.6407    0.0538 H   0  0  0  0  0  0  0  0  0  0  0  0
   -0.9555    7.3418    0.0522 C   0  0  0  0  0  0  0  0  0  0  0  0
   -1.6727    8.5299    0.0666 C   0  0  0  0  0  0  0  0  0  0  0  0
   -1.0006    9.7342    0.0684 C   0  0  0  0  0  0  0  0  0  0  0  0
    0.3867    9.7656    0.0559 C   0  0  0  0  0  0  0  0  0  0  0  0
    1.1099    8.6068    0.0411 C   0  0  0  0  0  0  0  0  0  0  0  0
    0.4502    7.3735    0.0395 C   0  0  0  0  0  0  0  0  0  0  0  0
    0.8796    6.0879    0.0330 N   0  0  0  0  0  0  0  0  0  0  0  0
   -1.7781   11.0250    0.0835 C   0  0  0  0  0  0  0  0  0  0  0  0
    2.1218    1.2390   -0.0110 H   0  0  0  0  0  0  0  0  0  0  0  0
    2.0838    3.7214    0.0021 H   0  0  0  0  0  0  0  0  0  0  0  0
    0.0021   -0.0041    0.0049 H   0  0  0  0  0  0  0  0  0  0  0  0
   -2.3299    4.6275    0.0585 H   0  0  0  0  0  0  0  0  0  0  0  0
   -2.7525    8.5115    0.0760 H   0  0  0  0  0  0  0  0  0  0  0  0
    0.8998   10.7159    0.0574 H   0  0  0  0  0  0  0  0  0  0  0  0
    2.1892    8.6429    0.0315 H   0  0  0  0  0  0  0  0  0  0  0  0
   -1.9565   11.3296    1.1148 H   0  0  0  0  0  0  0  0  0  0  0  0
   -1.5101   12.9439   -0.6125 H   0  0  0  0  0  0  0  0  0  0  0  0
   -0.0944   12.1758   -0.1980 H   0  0  0  0  0  0  0  0  0  0  0  0
   -2.9258   10.5469   -1.5575 H   0  0  0  0  0  0  0  0  0  0  0  0
   -3.6386   10.1637   -0.1045 H   0  0  0  0  0  0  0  0  0  0  0  0
   -1.0083   12.0576   -0.6323 N   0  3  0  0  0  0  0  0  0  0  0  0
   -0.8801   11.7669   -1.6086 H   0  0  0  0  0  0  0  0  0  0  0  0
   -3.0737   10.8534   -0.5973 N   0  3  0  0  0  0  0  0  0  0  0  0
   -3.5723   11.7509   -0.6052 H   0  0  0  0  0  0  0  0  0  0  0  0
  1 19  1  0  0  0  0
  1  2  2  0  0  0  0
  1  6  1  0  0  0  0
  2 20  1  0  0  0  0
  2  3  1  0  0  0  0
  3  8  1  0  0  0  0
  3  4  2  0  0  0  0
  4  5  1  0  0  0  0
  4  7  1  0  0  0  0
  5  6  2  0  0  0  0
  6 21  1  0  0  0  0
  7 22  1  0  0  0  0
  8 17  2  0  0  0  0
  8  9  1  0  0  0  0
  9 10  1  0  0  0  0
  9 11  1  0  0  0  0
 11 16  2  0  0  0  0
 11 12  1  0  0  0  0
 12 13  2  0  0  0  0
 12 23  1  0  0  0  0
 13 14  1  0  0  0  0
 13 18  1  0  0  0  0
 14 15  2  0  0  0  0
 14 24  1  0  0  0  0
 15 16  1  0  0  0  0
 15 25  1  0  0  0  0
 16 17  1  0  0  0  0
 18 26  1  0  0  0  0
 18 31  1  0  0  0  0
 18 33  1  0  0  0  0
 27 31  1  0  0  0  0
 28 31  1  0  0  0  0
 29 33  1  0  0  0  0
 30 33  1  0  0  0  0
 31 32  1  0  0  0  0
 33 34  1  0  0  0  0
M  CHG  2  31   1  33   1
M  END
$$$$
ZINC04617937
  -OEChem-08230709403D

 35 37  0     0  0  0  0  0  0999 V2000
    1.1821    1.7711    0.0003 C   0  0  0  0  0  0  0  0  0  0  0  0
    1.1638    3.1558    0.0079 C   0  0  0  0  0  0  0  0  0  0  0  0
   -0.0751    3.8034    0.0232 C   0  0  0  0  0  0  0  0  0  0  0  0
   -1.2433    3.0278    0.0298 C   0  0  0  0  0  0  0  0  0  0  0  0
   -1.1707    1.7084    0.0161 N   0  0  0  0  0  0  0  0  0  0  0  0
   -0.0126    1.0758    0.0071 C   0  0  0  0  0  0  0  0  0  0  0  0
   -2.4548    3.6354    0.0445 O   0  0  0  0  0  0  0  0  0  0  0  0
   -0.1521    5.2788    0.0323 C   0  0  0  0  0  0  0  0  0  0  0  0
   -1.3115    6.0068    0.0474 N   0  0  0  0  0  0  0  0  0  0  0  0
   -2.2421    5.6407    0.0538 H   0  0  0  0  0  0  0  0  0  0  0  0
   -0.9555    7.3418    0.0522 C   0  0  0  0  0  0  0  0  0  0  0  0
   -1.6727    8.5299    0.0666 C   0  0  0  0  0  0  0  0  0  0  0  0
   -1.0006    9.7342    0.0684 C   0  0  0  0  0  0  0  0  0  0  0  0
    0.3867    9.7656    0.0559 C   0  0  0  0  0  0  0  0  0  0  0  0
    1.1099    8.6068    0.0411 C   0  0  0  0  0  0  0  0  0  0  0  0
    0.4502    7.3735    0.0395 C   0  0  0  0  0  0  0  0  0  0  0  0
   -1.7781   11.0250    0.0835 C   0  0  0  0  0  0  0  0  0  0  0  0
    2.1218    1.2390   -0.0109 H   0  0  0  0  0  0  0  0  0  0  0  0
    2.0838    3.7214    0.0022 H   0  0  0  0  0  0  0  0  0  0  0  0
    0.0021   -0.0041    0.0051 H   0  0  0  0  0  0  0  0  0  0  0  0
   -2.0164    1.1748    0.0125 H   0  0  0  0  0  0  0  0  0  0  0  0
   -2.7525    8.5115    0.0760 H   0  0  0  0  0  0  0  0  0  0  0  0
    0.8998   10.7159    0.0574 H   0  0  0  0  0  0  0  0  0  0  0  0
    2.1892    8.6429    0.0315 H   0  0  0  0  0  0  0  0  0  0  0  0
   -1.9565   11.3296    1.1148 H   0  0  0  0  0  0  0  0  0  0  0  0
   -1.5101   12.9439   -0.6125 H   0  0  0  0  0  0  0  0  0  0  0  0
   -0.0944   12.1758   -0.1980 H   0  0  0  0  0  0  0  0  0  0  0  0
   -2.9258   10.5469   -1.5575 H   0  0  0  0  0  0  0  0  0  0  0  0
   -3.6386   10.1637   -0.1045 H   0  0  0  0  0  0  0  0  0  0  0  0
   -1.0083   12.0576   -0.6323 N   0  3  0  0  0  0  0  0  0  0  0  0
   -0.8801   11.7669   -1.6086 H   0  0  0  0  0  0  0  0  0  0  0  0
   -3.0737   10.8534   -0.5973 N   0  3  0  0  0  0  0  0  0  0  0  0
   -3.5723   11.7509   -0.6052 H   0  0  0  0  0  0  0  0  0  0  0  0
    0.8806    6.0876    0.0330 N   0  3  0  0  0  0  0  0  0  0  0  0
    1.8640    5.7923    0.0292 H   0  0  0  0  0  0  0  0  0  0  0  0
  1 18  1  0  0  0  0
  1  2  1  0  0  0  0
  1  6  2  0  0  0  0
  2 19  1  0  0  0  0
  2  3  2  0  0  0  0
  3  8  1  0  0  0  0
  3  4  1  0  0  0  0
  4  5  1  0  0  0  0
  4  7  2  0  0  0  0
  5 21  1  0  0  0  0
  5  6  1  0  0  0  0
  6 20  1  0  0  0  0
  8  9  1  0  0  0  0
  8 34  2  0  0  0  0
  9 10  1  0  0  0  0
  9 11  1  0  0  0  0
 11 16  2  0  0  0  0
 11 12  1  0  0  0  0
 12 13  2  0  0  0  0
 12 22  1  0  0  0  0
 13 14  1  0  0  0  0
 13 17  1  0  0  0  0
 14 15  2  0  0  0  0
 14 23  1  0  0  0  0
 15 16  1  0  0  0  0
 15 24  1  0  0  0  0
 16 34  1  0  0  0  0
 17 25  1  0  0  0  0
 17 30  1  0  0  0  0
 17 32  1  0  0  0  0
 26 30  1  0  0  0  0
 27 30  1  0  0  0  0
 28 32  1  0  0  0  0
 29 32  1  0  0  0  0
 30 31  1  0  0  0  0
 32 33  1  0  0  0  0
 34 35  1  0  0  0  0
M  CHG  3  30   1  32   1  34   1
M  END
$$$$
ZINC04617938
  -OEChem-08230709403D

 35 37  0     0  0  0  0  0  0999 V2000
   -9.8048   -1.5369   -2.9870 C   0  0  0  0  0  0  0  0  0  0  0  0
   -9.8831   -1.4875   -4.3685 C   0  0  0  0  0  0  0  0  0  0  0  0
   -8.7997   -1.0655   -5.1146 C   0  0  0  0  0  0  0  0  0  0  0  0
   -7.6276   -0.6820   -4.4820 C   0  0  0  0  0  0  0  0  0  0  0  0
   -7.5427   -0.7356   -3.0853 C   0  0  0  0  0  0  0  0  0  0  0  0
   -8.6440   -1.1642   -2.3427 C   0  0  0  0  0  0  0  0  0  0  0  0
   -6.2960   -0.3349   -2.4010 C   0  0  0  0  0  0  0  0  0  0  0  0
   -6.1042   -0.3426   -1.0454 N   0  0  0  0  0  0  0  0  0  0  0  0
   -6.7720   -0.6160   -0.3531 H   0  0  0  0  0  0  0  0  0  0  0  0
   -4.8155    0.0979   -0.8126 C   0  0  0  0  0  0  0  0  0  0  0  0
   -4.0588    0.3002    0.3331 C   0  0  0  0  0  0  0  0  0  0  0  0
   -2.7637    0.7615    0.2244 C   0  0  0  0  0  0  0  0  0  0  0  0
   -2.2127    1.0239   -1.0219 C   0  0  0  0  0  0  0  0  0  0  0  0
   -2.9436    0.8362   -2.1605 C   0  0  0  0  0  0  0  0  0  0  0  0
   -4.2575    0.3642   -2.0755 C   0  0  0  0  0  0  0  0  0  0  0  0
   -5.2069    0.0814   -3.0006 N   0  0  0  0  0  0  0  0  0  0  0  0
   -0.7955    1.5269   -1.1198 C   0  0  0  0  0  0  0  0  0  0  0  0
   -6.5643   -0.2609   -5.2138 O   0  0  0  0  0  0  0  0  0  0  0  0
  -10.6565   -1.8685   -2.4116 H   0  0  0  0  0  0  0  0  0  0  0  0
  -10.7960   -1.7808   -4.8655 H   0  0  0  0  0  0  0  0  0  0  0  0
   -8.8677   -1.0302   -6.1919 H   0  0  0  0  0  0  0  0  0  0  0  0
   -8.5870   -1.2042   -1.2649 H   0  0  0  0  0  0  0  0  0  0  0  0
   -4.4823    0.0970    1.3056 H   0  0  0  0  0  0  0  0  0  0  0  0
   -2.1741    0.9192    1.1154 H   0  0  0  0  0  0  0  0  0  0  0  0
   -2.5063    1.0481   -3.1250 H   0  0  0  0  0  0  0  0  0  0  0  0
   -0.7938    2.6165   -1.0898 H   0  0  0  0  0  0  0  0  0  0  0  0
    0.0021   -0.0041    0.0020 H   0  0  0  0  0  0  0  0  0  0  0  0
    0.9253    1.3792    0.0006 H   0  0  0  0  0  0  0  0  0  0  0  0
    0.7510    1.3955   -2.4724 H   0  0  0  0  0  0  0  0  0  0  0  0
   -0.2485    0.0662   -2.4635 H   0  0  0  0  0  0  0  0  0  0  0  0
   -5.9615   -0.9702   -5.4756 H   0  0  0  0  0  0  0  0  0  0  0  0
   -0.0252    1.0139    0.0269 N   0  3  0  0  0  0  0  0  0  0  0  0
   -0.4761    1.3157    0.8986 H   0  0  0  0  0  0  0  0  0  0  0  0
   -0.2156    1.0823   -2.3994 N   0  3  0  0  0  0  0  0  0  0  0  0
   -0.7574    1.4845   -3.1734 H   0  0  0  0  0  0  0  0  0  0  0  0
  1  6  2  0  0  0  0
  1  2  1  0  0  0  0
  1 19  1  0  0  0  0
  2  3  2  0  0  0  0
  2 20  1  0  0  0  0
  3  4  1  0  0  0  0
  3 21  1  0  0  0  0
  4  5  2  0  0  0  0
  4 18  1  0  0  0  0
  5  6  1  0  0  0  0
  5  7  1  0  0  0  0
  6 22  1  0  0  0  0
  7 16  2  0  0  0  0
  7  8  1  0  0  0  0
  8  9  1  0  0  0  0
  8 10  1  0  0  0  0
 10 15  2  0  0  0  0
 10 11  1  0  0  0  0
 11 12  2  0  0  0  0
 11 23  1  0  0  0  0
 12 13  1  0  0  0  0
 12 24  1  0  0  0  0
 13 14  2  0  0  0  0
 13 17  1  0  0  0  0
 14 15  1  0  0  0  0
 14 25  1  0  0  0  0
 15 16  1  0  0  0  0
 17 26  1  0  0  0  0
 17 32  1  0  0  0  0
 17 34  1  0  0  0  0
 18 31  1  0  0  0  0
 27 32  1  0  0  0  0
 28 32  1  0  0  0  0
 29 34  1  0  0  0  0
 30 34  1  0  0  0  0
 32 33  1  0  0  0  0
 34 35  1  0  0  0  0
M  CHG  2  32   1  34   1
M  END
$$$$
ZINC04617938
  -OEChem-08230709403D

 35 37  0     0  0  0  0  0  0999 V2000
   -9.8048   -1.5369   -2.9870 C   0  0  0  0  0  0  0  0  0  0  0  0
   -9.8831   -1.4875   -4.3685 C   0  0  0  0  0  0  0  0  0  0  0  0
   -8.7997   -1.0655   -5.1146 C   0  0  0  0  0  0  0  0  0  0  0  0
   -7.6276   -0.6820   -4.4820 C   0  0  0  0  0  0  0  0  0  0  0  0
   -7.5427   -0.7356   -3.0853 C   0  0  0  0  0  0  0  0  0  0  0  0
   -8.6440   -1.1642   -2.3427 C   0  0  0  0  0  0  0  0  0  0  0  0
   -6.2960   -0.3349   -2.4010 C   0  0  0  0  0  0  0  0  0  0  0  0
   -6.1042   -0.3426   -1.0454 N   0  0  0  0  0  0  0  0  0  0  0  0
   -6.7720   -0.6160   -0.3531 H   0  0  0  0  0  0  0  0  0  0  0  0
   -4.8155    0.0979   -0.8126 C   0  0  0  0  0  0  0  0  0  0  0  0
   -4.0588    0.3002    0.3331 C   0  0  0  0  0  0  0  0  0  0  0  0
   -2.7637    0.7615    0.2244 C   0  0  0  0  0  0  0  0  0  0  0  0
   -2.2127    1.0239   -1.0219 C   0  0  0  0  0  0  0  0  0  0  0  0
   -2.9436    0.8362   -2.1605 C   0  0  0  0  0  0  0  0  0  0  0  0
   -4.2575    0.3642   -2.0755 C   0  0  0  0  0  0  0  0  0  0  0  0
   -5.2069    0.0814   -3.0006 N   0  0  0  0  0  0  0  0  0  0  0  0
   -0.7955    1.5269   -1.1198 C   0  0  0  0  0  0  0  0  0  0  0  0
   -6.5643   -0.2609   -5.2138 O   0  0  0  0  0  0  0  0  0  0  0  0
  -10.6565   -1.8685   -2.4116 H   0  0  0  0  0  0  0  0  0  0  0  0
  -10.7960   -1.7808   -4.8655 H   0  0  0  0  0  0  0  0  0  0  0  0
   -8.8677   -1.0302   -6.1919 H   0  0  0  0  0  0  0  0  0  0  0  0
   -8.5870   -1.2042   -1.2649 H   0  0  0  0  0  0  0  0  0  0  0  0
   -4.4823    0.0970    1.3056 H   0  0  0  0  0  0  0  0  0  0  0  0
   -2.1741    0.9192    1.1154 H   0  0  0  0  0  0  0  0  0  0  0  0
   -2.5063    1.0481   -3.1250 H   0  0  0  0  0  0  0  0  0  0  0  0
   -0.7938    2.6165   -1.0898 H   0  0  0  0  0  0  0  0  0  0  0  0
    0.0021   -0.0041    0.0020 H   0  0  0  0  0  0  0  0  0  0  0  0
    0.9253    1.3792    0.0006 H   0  0  0  0  0  0  0  0  0  0  0  0
    0.7510    1.3955   -2.4724 H   0  0  0  0  0  0  0  0  0  0  0  0
   -0.2485    0.0662   -2.4635 H   0  0  0  0  0  0  0  0  0  0  0  0
   -5.9615   -0.9702   -5.4756 H   0  0  0  0  0  0  0  0  0  0  0  0
   -0.0252    1.0139    0.0269 N   0  3  0  0  0  0  0  0  0  0  0  0
   -0.4761    1.3157    0.8986 H   0  0  0  0  0  0  0  0  0  0  0  0
   -0.2156    1.0823   -2.3994 N   0  3  0  0  0  0  0  0  0  0  0  0
   -0.7574    1.4845   -3.1734 H   0  0  0  0  0  0  0  0  0  0  0  0
  1  6  2  0  0  0  0
  1  2  1  0  0  0  0
  1 19  1  0  0  0  0
  2  3  2  0  0  0  0
  2 20  1  0  0  0  0
  3  4  1  0  0  0  0
  3 21  1  0  0  0  0
  4  5  2  0  0  0  0
  4 18  1  0  0  0  0
  5  6  1  0  0  0  0
  5  7  1  0  0  0  0
  6 22  1  0  0  0  0
  7 16  2  0  0  0  0
  7  8  1  0  0  0  0
  8  9  1  0  0  0  0
  8 10  1  0  0  0  0
 10 15  2  0  0  0  0
 10 11  1  0  0  0  0
 11 12  2  0  0  0  0
 11 23  1  0  0  0  0
 12 13  1  0  0  0  0
 12 24  1  0  0  0  0
 13 14  2  0  0  0  0
 13 17  1  0  0  0  0
 14 15  1  0  0  0  0
 14 25  1  0  0  0  0
 15 16  1  0  0  0  0
 17 26  1  0  0  0  0
 17 32  1  0  0  0  0
 17 34  1  0  0  0  0
 18 31  1  0  0  0  0
 27 32  1  0  0  0  0
 28 32  1  0  0  0  0
 29 34  1  0  0  0  0
 30 34  1  0  0  0  0
 32 33  1  0  0  0  0
 34 35  1  0  0  0  0
M  CHG  2  32   1  34   1
M  END
$$$$
ZINC04617939
  -OEChem-08230709403D

 34 36  0     0  0  0  0  0  0999 V2000
   -0.0126    1.0758    0.0080 C   0  0  0  0  0  0  0  0  0  0  0  0
    1.1745    1.7906    0.0005 C   0  0  0  0  0  0  0  0  0  0  0  0
    1.1117    3.1795    0.0086 C   0  0  0  0  0  0  0  0  0  0  0  0
   -0.1426    3.8006    0.0239 C   0  0  0  0  0  0  0  0  0  0  0  0
   -1.2533    3.0730    0.0306 N   0  0  0  0  0  0  0  0  0  0  0  0
   -1.2177    1.7575    0.0173 C   0  0  0  0  0  0  0  0  0  0  0  0
   -0.2312    5.2762    0.0332 C   0  0  0  0  0  0  0  0  0  0  0  0
   -1.3964    5.9951    0.0428 N   0  0  0  0  0  0  0  0  0  0  0  0
   -2.3241    5.6217    0.0430 H   0  0  0  0  0  0  0  0  0  0  0  0
   -1.0512    7.3319    0.0522 C   0  0  0  0  0  0  0  0  0  0  0  0
   -1.7777    8.5148    0.0656 C   0  0  0  0  0  0  0  0  0  0  0  0
   -1.1150    9.7239    0.0658 C   0  0  0  0  0  0  0  0  0  0  0  0
    0.2723    9.7661    0.0522 C   0  0  0  0  0  0  0  0  0  0  0  0
    1.0046    8.6134    0.0395 C   0  0  0  0  0  0  0  0  0  0  0  0
    0.3546    7.3745    0.0390 C   0  0  0  0  0  0  0  0  0  0  0  0
    0.7937    6.0931    0.0278 N   0  0  0  0  0  0  0  0  0  0  0  0
   -1.9025   11.0086    0.0802 C   0  0  0  0  0  0  0  0  0  0  0  0
    2.2488    3.9214    0.0013 O   0  0  0  0  0  0  0  0  0  0  0  0
    0.0021   -0.0041    0.0020 H   0  0  0  0  0  0  0  0  0  0  0  0
    2.1264    1.2806   -0.0111 H   0  0  0  0  0  0  0  0  0  0  0  0
   -2.1432    1.2008    0.0183 H   0  0  0  0  0  0  0  0  0  0  0  0
   -2.8573    8.4881    0.0754 H   0  0  0  0  0  0  0  0  0  0  0  0
    0.7779   10.7205    0.0522 H   0  0  0  0  0  0  0  0  0  0  0  0
    2.0836    8.6582    0.0297 H   0  0  0  0  0  0  0  0  0  0  0  0
   -2.0825   11.3129    1.1113 H   0  0  0  0  0  0  0  0  0  0  0  0
   -1.6498   12.9289   -0.6178 H   0  0  0  0  0  0  0  0  0  0  0  0
   -0.2279   12.1722   -0.2035 H   0  0  0  0  0  0  0  0  0  0  0  0
   -3.7613   11.6314   -0.5487 H   0  0  0  0  0  0  0  0  0  0  0  0
   -3.0475   10.5201   -1.5595 H   0  0  0  0  0  0  0  0  0  0  0  0
    2.5694    4.1411   -0.8842 H   0  0  0  0  0  0  0  0  0  0  0  0
   -1.1411   12.0465   -0.6371 N   0  3  0  0  0  0  0  0  0  0  0  0
   -1.0113   11.7559   -1.6132 H   0  0  0  0  0  0  0  0  0  0  0  0
   -3.1970   10.7841   -0.5870 N   0  3  0  0  0  0  0  0  0  0  0  0
   -3.6971   10.0266   -0.1073 H   0  0  0  0  0  0  0  0  0  0  0  0
  1  6  2  0  0  0  0
  1  2  1  0  0  0  0
  1 19  1  0  0  0  0
  2  3  2  0  0  0  0
  2 20  1  0  0  0  0
  3  4  1  0  0  0  0
  3 18  1  0  0  0  0
  4  5  2  0  0  0  0
  4  7  1  0  0  0  0
  5  6  1  0  0  0  0
  6 21  1  0  0  0  0
  7 16  2  0  0  0  0
  7  8  1  0  0  0  0
  8  9  1  0  0  0  0
  8 10  1  0  0  0  0
 10 15  2  0  0  0  0
 10 11  1  0  0  0  0
 11 12  2  0  0  0  0
 11 22  1  0  0  0  0
 12 13  1  0  0  0  0
 12 17  1  0  0  0  0
 13 14  2  0  0  0  0
 13 23  1  0  0  0  0
 14 15  1  0  0  0  0
 14 24  1  0  0  0  0
 15 16  1  0  0  0  0
 17 25  1  0  0  0  0
 17 31  1  0  0  0  0
 17 33  1  0  0  0  0
 18 30  1  0  0  0  0
 26 31  1  0  0  0  0
 27 31  1  0  0  0  0
 28 33  1  0  0  0  0
 29 33  1  0  0  0  0
 31 32  1  0  0  0  0
 33 34  1  0  0  0  0
M  CHG  2  31   1  33   1
M  END
$$$$
ZINC04617939
  -OEChem-08230709403D

 34 36  0     0  0  0  0  0  0999 V2000
   -0.0126    1.0758    0.0080 C   0  0  0  0  0  0  0  0  0  0  0  0
    1.1745    1.7906    0.0005 C   0  0  0  0  0  0  0  0  0  0  0  0
    1.1117    3.1795    0.0086 C   0  0  0  0  0  0  0  0  0  0  0  0
   -0.1426    3.8006    0.0239 C   0  0  0  0  0  0  0  0  0  0  0  0
   -1.2533    3.0730    0.0306 N   0  0  0  0  0  0  0  0  0  0  0  0
   -1.2177    1.7575    0.0173 C   0  0  0  0  0  0  0  0  0  0  0  0
   -0.2312    5.2762    0.0332 C   0  0  0  0  0  0  0  0  0  0  0  0
   -1.3964    5.9951    0.0428 N   0  0  0  0  0  0  0  0  0  0  0  0
   -2.3241    5.6217    0.0430 H   0  0  0  0  0  0  0  0  0  0  0  0
   -1.0512    7.3319    0.0522 C   0  0  0  0  0  0  0  0  0  0  0  0
   -1.7777    8.5148    0.0656 C   0  0  0  0  0  0  0  0  0  0  0  0
   -1.1150    9.7239    0.0658 C   0  0  0  0  0  0  0  0  0  0  0  0
    0.2723    9.7661    0.0522 C   0  0  0  0  0  0  0  0  0  0  0  0
    1.0046    8.6134    0.0395 C   0  0  0  0  0  0  0  0  0  0  0  0
    0.3546    7.3745    0.0390 C   0  0  0  0  0  0  0  0  0  0  0  0
    0.7937    6.0931    0.0278 N   0  0  0  0  0  0  0  0  0  0  0  0
   -1.9025   11.0086    0.0802 C   0  0  0  0  0  0  0  0  0  0  0  0
    2.2488    3.9214    0.0013 O   0  0  0  0  0  0  0  0  0  0  0  0
    0.0021   -0.0041    0.0020 H   0  0  0  0  0  0  0  0  0  0  0  0
    2.1264    1.2806   -0.0111 H   0  0  0  0  0  0  0  0  0  0  0  0
   -2.1432    1.2008    0.0183 H   0  0  0  0  0  0  0  0  0  0  0  0
   -2.8573    8.4881    0.0754 H   0  0  0  0  0  0  0  0  0  0  0  0
    0.7779   10.7205    0.0522 H   0  0  0  0  0  0  0  0  0  0  0  0
    2.0836    8.6582    0.0297 H   0  0  0  0  0  0  0  0  0  0  0  0
   -2.0825   11.3129    1.1113 H   0  0  0  0  0  0  0  0  0  0  0  0
   -1.6498   12.9289   -0.6178 H   0  0  0  0  0  0  0  0  0  0  0  0
   -0.2279   12.1722   -0.2035 H   0  0  0  0  0  0  0  0  0  0  0  0
   -3.7613   11.6314   -0.5487 H   0  0  0  0  0  0  0  0  0  0  0  0
   -3.0475   10.5201   -1.5595 H   0  0  0  0  0  0  0  0  0  0  0  0
    2.5694    4.1411   -0.8842 H   0  0  0  0  0  0  0  0  0  0  0  0
   -1.1411   12.0465   -0.6371 N   0  3  0  0  0  0  0  0  0  0  0  0
   -1.0113   11.7559   -1.6132 H   0  0  0  0  0  0  0  0  0  0  0  0
   -3.1970   10.7841   -0.5870 N   0  3  0  0  0  0  0  0  0  0  0  0
   -3.6971   10.0266   -0.1073 H   0  0  0  0  0  0  0  0  0  0  0  0
  1  6  2  0  0  0  0
  1  2  1  0  0  0  0
  1 19  1  0  0  0  0
  2  3  2  0  0  0  0
  2 20  1  0  0  0  0
  3  4  1  0  0  0  0
  3 18  1  0  0  0  0
  4  5  2  0  0  0  0
  4  7  1  0  0  0  0
  5  6  1  0  0  0  0
  6 21  1  0  0  0  0
  7 16  2  0  0  0  0
  7  8  1  0  0  0  0
  8  9  1  0  0  0  0
  8 10  1  0  0  0  0
 10 15  2  0  0  0  0
 10 11  1  0  0  0  0
 11 12  2  0  0  0  0
 11 22  1  0  0  0  0
 12 13  1  0  0  0  0
 12 17  1  0  0  0  0
 13 14  2  0  0  0  0
 13 23  1  0  0  0  0
 14 15  1  0  0  0  0
 14 24  1  0  0  0  0
 15 16  1  0  0  0  0
 17 25  1  0  0  0  0
 17 31  1  0  0  0  0
 17 33  1  0  0  0  0
 18 30  1  0  0  0  0
 26 31  1  0  0  0  0
 27 31  1  0  0  0  0
 28 33  1  0  0  0  0
 29 33  1  0  0  0  0
 31 32  1  0  0  0  0
 33 34  1  0  0  0  0
M  CHG  2  31   1  33   1
M  END
$$$$
ZINC04617940
  -OEChem-08230709403D

 45 48  0     0  0  0  0  0  0999 V2000
    2.3775    1.4178   -0.0135 C   0  0  0  0  0  0  0  0  0  0  0  0
    1.1704    2.0931    0.0021 C   0  0  0  0  0  0  0  0  0  0  0  0
   -0.0168    1.3894    0.0097 C   0  0  0  0  0  0  0  0  0  0  0  0
    0.0021   -0.0041    0.0020 C   0  0  0  0  0  0  0  0  0  0  0  0
    1.2212   -0.6791   -0.0132 C   0  0  0  0  0  0  0  0  0  0  0  0
    2.4023    0.0348   -0.0207 C   0  0  0  0  0  0  0  0  0  0  0  0
   -1.2707   -0.7659    0.0106 C   0  0  0  0  0  0  0  0  0  0  0  0
   -2.2586   -0.4646    0.9455 C   0  0  0  0  0  0  0  0  0  0  0  0
   -3.4453   -1.1723    0.9563 C   0  0  0  0  0  0  0  0  0  0  0  0
   -3.6643   -2.1831    0.0422 C   0  0  0  0  0  0  0  0  0  0  0  0
   -2.6861   -2.4990   -0.9018 C   0  0  0  0  0  0  0  0  0  0  0  0
   -1.4840   -1.7833   -0.9224 C   0  0  0  0  0  0  0  0  0  0  0  0
   -0.5290   -2.0792   -1.8399 O   0  0  0  0  0  0  0  0  0  0  0  0
   -2.9217   -3.5809   -1.8802 C   0  0  0  0  0  0  0  0  0  0  0  0
   -4.0584   -4.3402   -1.9562 N   0  0  0  0  0  0  0  0  0  0  0  0
   -4.8641   -4.2628   -1.3690 H   0  0  0  0  0  0  0  0  0  0  0  0
   -3.8843   -5.2334   -2.9958 C   0  0  0  0  0  0  0  0  0  0  0  0
   -4.6704   -6.2361   -3.5462 C   0  0  0  0  0  0  0  0  0  0  0  0
   -4.1941   -6.9710   -4.6115 C   0  0  0  0  0  0  0  0  0  0  0  0
   -2.9351   -6.7149   -5.1359 C   0  0  0  0  0  0  0  0  0  0  0  0
   -2.1466   -5.7326   -4.6074 C   0  0  0  0  0  0  0  0  0  0  0  0
   -2.6087   -4.9736   -3.5273 C   0  0  0  0  0  0  0  0  0  0  0  0
   -2.0760   -3.9543   -2.8099 N   0  0  0  0  0  0  0  0  0  0  0  0
   -5.0467   -8.0600   -5.2101 C   0  0  0  0  0  0  0  0  0  0  0  0
    3.3042    1.9725   -0.0194 H   0  0  0  0  0  0  0  0  0  0  0  0
    1.1570    3.1730    0.0081 H   0  0  0  0  0  0  0  0  0  0  0  0
   -0.9588    1.9177    0.0170 H   0  0  0  0  0  0  0  0  0  0  0  0
    1.2417   -1.7589   -0.0189 H   0  0  0  0  0  0  0  0  0  0  0  0
    3.3476   -0.4873   -0.0325 H   0  0  0  0  0  0  0  0  0  0  0  0
   -2.0961    0.3246    1.6646 H   0  0  0  0  0  0  0  0  0  0  0  0
   -4.2063   -0.9328    1.6843 H   0  0  0  0  0  0  0  0  0  0  0  0
   -4.5948   -2.7312    0.0578 H   0  0  0  0  0  0  0  0  0  0  0  0
    0.1023   -2.7509   -1.5479 H   0  0  0  0  0  0  0  0  0  0  0  0
   -5.6508   -6.4402   -3.1417 H   0  0  0  0  0  0  0  0  0  0  0  0
   -2.5747   -7.2985   -5.9702 H   0  0  0  0  0  0  0  0  0  0  0  0
   -1.1684   -5.5418   -5.0234 H   0  0  0  0  0  0  0  0  0  0  0  0
   -5.6625   -7.6427   -6.0068 H   0  0  0  0  0  0  0  0  0  0  0  0
   -3.6220   -8.7592   -6.5215 H   0  0  0  0  0  0  0  0  0  0  0  0
   -3.6005   -9.5153   -5.0404 H   0  0  0  0  0  0  0  0  0  0  0  0
   -6.4717   -7.9151   -3.7314 H   0  0  0  0  0  0  0  0  0  0  0  0
   -6.4946   -9.3645   -4.5467 H   0  0  0  0  0  0  0  0  0  0  0  0
   -4.1994   -9.1287   -5.7680 N   0  3  0  0  0  0  0  0  0  0  0  0
   -4.7986   -9.8748   -6.1402 H   0  0  0  0  0  0  0  0  0  0  0  0
   -5.8949   -8.6405   -4.1543 N   0  3  0  0  0  0  0  0  0  0  0  0
   -5.2964   -9.0567   -3.4313 H   0  0  0  0  0  0  0  0  0  0  0  0
  1  6  2  0  0  0  0
  1  2  1  0  0  0  0
  1 25  1  0  0  0  0
  2  3  2  0  0  0  0
  2 26  1  0  0  0  0
  3  4  1  0  0  0  0
  3 27  1  0  0  0  0
  4  5  2  0  0  0  0
  4  7  1  0  0  0  0
  5  6  1  0  0  0  0
  5 28  1  0  0  0  0
  6 29  1  0  0  0  0
  7 12  2  0  0  0  0
  7  8  1  0  0  0  0
  8  9  2  0  0  0  0
  8 30  1  0  0  0  0
  9 10  1  0  0  0  0
  9 31  1  0  0  0  0
 10 11  2  0  0  0  0
 10 32  1  0  0  0  0
 11 12  1  0  0  0  0
 11 14  1  0  0  0  0
 12 13  1  0  0  0  0
 13 33  1  0  0  0  0
 14 23  2  0  0  0  0
 14 15  1  0  0  0  0
 15 16  1  0  0  0  0
 15 17  1  0  0  0  0
 17 22  2  0  0  0  0
 17 18  1  0  0  0  0
 18 19  2  0  0  0  0
 18 34  1  0  0  0  0
 19 20  1  0  0  0  0
 19 24  1  0  0  0  0
 20 21  2  0  0  0  0
 20 35  1  0  0  0  0
 21 22  1  0  0  0  0
 21 36  1  0  0  0  0
 22 23  1  0  0  0  0
 24 37  1  0  0  0  0
 24 42  1  0  0  0  0
 24 44  1  0  0  0  0
 38 42  1  0  0  0  0
 39 42  1  0  0  0  0
 40 44  1  0  0  0  0
 41 44  1  0  0  0  0
 42 43  1  0  0  0  0
 44 45  1  0  0  0  0
M  CHG  2  42   1  44   1
M  END
$$$$
ZINC04617940
  -OEChem-08230709403D

 45 48  0     0  0  0  0  0  0999 V2000
    2.3775    1.4178   -0.0135 C   0  0  0  0  0  0  0  0  0  0  0  0
    1.1704    2.0931    0.0021 C   0  0  0  0  0  0  0  0  0  0  0  0
   -0.0168    1.3894    0.0097 C   0  0  0  0  0  0  0  0  0  0  0  0
    0.0021   -0.0041    0.0020 C   0  0  0  0  0  0  0  0  0  0  0  0
    1.2212   -0.6791   -0.0132 C   0  0  0  0  0  0  0  0  0  0  0  0
    2.4023    0.0348   -0.0207 C   0  0  0  0  0  0  0  0  0  0  0  0
   -1.2707   -0.7659    0.0106 C   0  0  0  0  0  0  0  0  0  0  0  0
   -2.2586   -0.4646    0.9455 C   0  0  0  0  0  0  0  0  0  0  0  0
   -3.4453   -1.1723    0.9563 C   0  0  0  0  0  0  0  0  0  0  0  0
   -3.6643   -2.1831    0.0422 C   0  0  0  0  0  0  0  0  0  0  0  0
   -2.6861   -2.4990   -0.9018 C   0  0  0  0  0  0  0  0  0  0  0  0
   -1.4840   -1.7833   -0.9224 C   0  0  0  0  0  0  0  0  0  0  0  0
   -0.5290   -2.0792   -1.8399 O   0  0  0  0  0  0  0  0  0  0  0  0
   -2.9217   -3.5809   -1.8802 C   0  0  0  0  0  0  0  0  0  0  0  0
   -4.0584   -4.3402   -1.9562 N   0  0  0  0  0  0  0  0  0  0  0  0
   -4.8641   -4.2628   -1.3690 H   0  0  0  0  0  0  0  0  0  0  0  0
   -3.8843   -5.2334   -2.9958 C   0  0  0  0  0  0  0  0  0  0  0  0
   -4.6704   -6.2361   -3.5462 C   0  0  0  0  0  0  0  0  0  0  0  0
   -4.1941   -6.9710   -4.6115 C   0  0  0  0  0  0  0  0  0  0  0  0
   -2.9351   -6.7149   -5.1359 C   0  0  0  0  0  0  0  0  0  0  0  0
   -2.1466   -5.7326   -4.6074 C   0  0  0  0  0  0  0  0  0  0  0  0
   -2.6087   -4.9736   -3.5273 C   0  0  0  0  0  0  0  0  0  0  0  0
   -2.0760   -3.9543   -2.8099 N   0  0  0  0  0  0  0  0  0  0  0  0
   -5.0467   -8.0600   -5.2101 C   0  0  0  0  0  0  0  0  0  0  0  0
    3.3042    1.9725   -0.0194 H   0  0  0  0  0  0  0  0  0  0  0  0
    1.1570    3.1730    0.0081 H   0  0  0  0  0  0  0  0  0  0  0  0
   -0.9588    1.9177    0.0170 H   0  0  0  0  0  0  0  0  0  0  0  0
    1.2417   -1.7589   -0.0189 H   0  0  0  0  0  0  0  0  0  0  0  0
    3.3476   -0.4873   -0.0325 H   0  0  0  0  0  0  0  0  0  0  0  0
   -2.0961    0.3246    1.6646 H   0  0  0  0  0  0  0  0  0  0  0  0
   -4.2063   -0.9328    1.6843 H   0  0  0  0  0  0  0  0  0  0  0  0
   -4.5948   -2.7312    0.0578 H   0  0  0  0  0  0  0  0  0  0  0  0
    0.1023   -2.7509   -1.5479 H   0  0  0  0  0  0  0  0  0  0  0  0
   -5.6508   -6.4402   -3.1417 H   0  0  0  0  0  0  0  0  0  0  0  0
   -2.5747   -7.2985   -5.9702 H   0  0  0  0  0  0  0  0  0  0  0  0
   -1.1684   -5.5418   -5.0234 H   0  0  0  0  0  0  0  0  0  0  0  0
   -5.6625   -7.6427   -6.0068 H   0  0  0  0  0  0  0  0  0  0  0  0
   -3.6220   -8.7592   -6.5215 H   0  0  0  0  0  0  0  0  0  0  0  0
   -3.6005   -9.5153   -5.0404 H   0  0  0  0  0  0  0  0  0  0  0  0
   -6.4717   -7.9151   -3.7314 H   0  0  0  0  0  0  0  0  0  0  0  0
   -6.4946   -9.3645   -4.5467 H   0  0  0  0  0  0  0  0  0  0  0  0
   -4.1994   -9.1287   -5.7680 N   0  3  0  0  0  0  0  0  0  0  0  0
   -4.7986   -9.8748   -6.1402 H   0  0  0  0  0  0  0  0  0  0  0  0
   -5.8949   -8.6405   -4.1543 N   0  3  0  0  0  0  0  0  0  0  0  0
   -5.2964   -9.0567   -3.4313 H   0  0  0  0  0  0  0  0  0  0  0  0
  1  6  2  0  0  0  0
  1  2  1  0  0  0  0
  1 25  1  0  0  0  0
  2  3  2  0  0  0  0
  2 26  1  0  0  0  0
  3  4  1  0  0  0  0
  3 27  1  0  0  0  0
  4  5  2  0  0  0  0
  4  7  1  0  0  0  0
  5  6  1  0  0  0  0
  5 28  1  0  0  0  0
  6 29  1  0  0  0  0
  7 12  2  0  0  0  0
  7  8  1  0  0  0  0
  8  9  2  0  0  0  0
  8 30  1  0  0  0  0
  9 10  1  0  0  0  0
  9 31  1  0  0  0  0
 10 11  2  0  0  0  0
 10 32  1  0  0  0  0
 11 12  1  0  0  0  0
 11 14  1  0  0  0  0
 12 13  1  0  0  0  0
 13 33  1  0  0  0  0
 14 23  2  0  0  0  0
 14 15  1  0  0  0  0
 15 16  1  0  0  0  0
 15 17  1  0  0  0  0
 17 22  2  0  0  0  0
 17 18  1  0  0  0  0
 18 19  2  0  0  0  0
 18 34  1  0  0  0  0
 19 20  1  0  0  0  0
 19 24  1  0  0  0  0
 20 21  2  0  0  0  0
 20 35  1  0  0  0  0
 21 22  1  0  0  0  0
 21 36  1  0  0  0  0
 22 23  1  0  0  0  0
 24 37  1  0  0  0  0
 24 42  1  0  0  0  0
 24 44  1  0  0  0  0
 38 42  1  0  0  0  0
 39 42  1  0  0  0  0
 40 44  1  0  0  0  0
 41 44  1  0  0  0  0
 42 43  1  0  0  0  0
 44 45  1  0  0  0  0
M  CHG  2  42   1  44   1
M  END
$$$$
ZINC04632542
  -OEChem-08230709403D

 76 80  0     1  0  0  0  0  0999 V2000
   11.6475   -0.0377    1.8028 C   0  0  0  0  0  0  0  0  0  0  0  0
   12.1834   -0.3545    0.5686 C   0  0  0  0  0  0  0  0  0  0  0  0
   11.7573    0.3161   -0.5626 C   0  0  0  0  0  0  0  0  0  0  0  0
   10.7954    1.3036   -0.4595 C   0  0  0  0  0  0  0  0  0  0  0  0
   10.2632    1.6239    0.7754 C   0  0  0  0  0  0  0  0  0  0  0  0
   10.6856    0.9496    1.9059 C   0  0  0  0  0  0  0  0  0  0  0  0
   10.3311    2.0350   -1.6927 C   0  0  0  0  0  0  0  0  0  0  0  0
    9.2720    1.1986   -2.4134 C   0  0  2  0  0  0  0  0  0  0  0  0
    8.9141    1.8767   -3.7302 C   0  0  0  0  0  0  0  0  0  0  0  0
    7.4860    1.5273   -4.1480 C   0  0  0  0  0  0  0  0  0  0  0  0
    6.5549    2.0217   -3.1241 N   0  0  1  0  0  0  0  0  0  0  0  0
    5.1593    1.6480   -3.4618 C   0  0  0  0  0  0  0  0  0  0  0  0
    4.4666    1.7408   -2.0742 C   0  0  0  0  0  0  0  0  0  0  0  0
    5.6071    1.2749   -1.1374 C   0  0  1  0  0  0  0  0  0  0  0  0
    5.4670    0.2291   -0.8636 H   0  0  0  0  0  0  0  0  0  0  0  0
    6.8459    1.4358   -1.9164 N   0  0  0  0  0  0  0  0  0  0  0  0
    8.0738    1.0527   -1.5225 C   0  0  0  0  0  0  0  0  0  0  0  0
    8.2162    0.5762   -0.4164 O   0  0  0  0  0  0  0  0  0  0  0  0
    5.6510    2.1355    0.0989 C   0  0  0  0  0  0  0  0  0  0  0  0
    5.0211    1.8140    1.0842 O   0  0  0  0  0  0  0  0  0  0  0  0
    6.3901    3.2625    0.1097 N   0  0  0  0  0  0  0  0  0  0  0  0
    6.5233    4.0393    1.3446 C   0  0  2  0  0  0  0  0  0  0  0  0
    6.3802    3.4402    2.1323 H   0  0  0  0  0  0  0  0  0  0  0  0
    5.4796    5.1580    1.3584 C   0  0  0  0  0  0  0  0  0  0  0  0
    4.0770    4.5473    1.3350 C   0  0  0  0  0  0  0  0  0  0  0  0
    3.0348    5.6656    1.2711 C   0  0  0  0  0  0  0  0  0  0  0  0
    1.6920    5.0879    1.3674 N   0  0  0  0  0  0  0  0  0  0  0  0
    0.5859    5.8928    1.2302 C   0  0  0  0  0  0  0  0  0  0  0  0
   -0.6716    5.3719    1.4240 N   0  0  0  0  0  0  0  0  0  0  0  0
    7.9039    4.6394    1.4141 C   0  0  0  0  0  0  0  0  0  0  0  0
    8.5653    4.7573    0.4046 O   0  0  0  0  0  0  0  0  0  0  0  0
    8.4492    5.0820    2.7064 C   0  0  0  0  0  0  0  0  0  0  0  0
    7.8888    5.0430    3.8972 N   0  0  0  0  0  0  0  0  0  0  0  0
    8.5028    5.4778    4.9999 C   0  0  0  0  0  0  0  0  0  0  0  0
    8.0125    5.4857    6.3318 C   0  0  0  0  0  0  0  0  0  0  0  0
    8.7689    5.9739    7.3476 C   0  0  0  0  0  0  0  0  0  0  0  0
   10.0447    6.4828    7.1316 C   0  0  0  0  0  0  0  0  0  0  0  0
   10.5625    6.4951    5.8520 C   0  0  0  0  0  0  0  0  0  0  0  0
    9.8077    6.0038    4.8126 C   0  0  0  0  0  0  0  0  0  0  0  0
   10.0395    5.8179    3.0612 S   0  0  0  0  0  0  0  0  0  0  0  0
   11.9807   -0.5615    2.6867 H   0  0  0  0  0  0  0  0  0  0  0  0
   12.9352   -1.1256    0.4881 H   0  0  0  0  0  0  0  0  0  0  0  0
   12.1763    0.0690   -1.5268 H   0  0  0  0  0  0  0  0  0  0  0  0
    9.5149    2.3983    0.8566 H   0  0  0  0  0  0  0  0  0  0  0  0
   10.2672    1.1974    2.8703 H   0  0  0  0  0  0  0  0  0  0  0  0
   11.1787    2.1997   -2.3580 H   0  0  0  0  0  0  0  0  0  0  0  0
    9.9025    2.9952   -1.4058 H   0  0  0  0  0  0  0  0  0  0  0  0
    8.9996    2.9570   -3.6124 H   0  0  0  0  0  0  0  0  0  0  0  0
    9.6060    1.5450   -4.5043 H   0  0  0  0  0  0  0  0  0  0  0  0
    7.2601    1.9984   -5.1047 H   0  0  0  0  0  0  0  0  0  0  0  0
    7.3869    0.4457   -4.2397 H   0  0  0  0  0  0  0  0  0  0  0  0
    4.7237    2.3587   -4.1641 H   0  0  0  0  0  0  0  0  0  0  0  0
    5.1110    0.6327   -3.8554 H   0  0  0  0  0  0  0  0  0  0  0  0
    4.1704    2.7659   -1.8516 H   0  0  0  0  0  0  0  0  0  0  0  0
    3.6116    1.0670   -2.0171 H   0  0  0  0  0  0  0  0  0  0  0  0
    6.8339    3.5592   -0.7003 H   0  0  0  0  0  0  0  0  0  0  0  0
    5.6004    5.7564    2.2614 H   0  0  0  0  0  0  0  0  0  0  0  0
    5.6146    5.7917    0.4819 H   0  0  0  0  0  0  0  0  0  0  0  0
    3.9748    3.9051    0.4602 H   0  0  0  0  0  0  0  0  0  0  0  0
    3.9223    3.9577    2.2386 H   0  0  0  0  0  0  0  0  0  0  0  0
    3.1930    6.3574    2.0985 H   0  0  0  0  0  0  0  0  0  0  0  0
    3.1334    6.2005    0.3264 H   0  0  0  0  0  0  0  0  0  0  0  0
    1.5833    4.1375    1.5279 H   0  0  0  0  0  0  0  0  0  0  0  0
    0.0103    7.7980    0.7971 H   0  0  0  0  0  0  0  0  0  0  0  0
   -0.7759    4.4566    1.7280 H   0  0  0  0  0  0  0  0  0  0  0  0
   -1.4546    5.9195    1.2564 H   0  0  0  0  0  0  0  0  0  0  0  0
    7.0259    5.0988    6.5396 H   0  0  0  0  0  0  0  0  0  0  0  0
    8.3691    5.9665    8.3509 H   0  0  0  0  0  0  0  0  0  0  0  0
   10.6257    6.8649    7.9580 H   0  0  0  0  0  0  0  0  0  0  0  0
   11.5521    6.8870    5.6687 H   0  0  0  0  0  0  0  0  0  0  0  0
   10.0728   -0.6096   -1.8405 H   0  0  0  0  0  0  0  0  0  0  0  0
    9.1809   -0.6838   -3.2423 H   0  0  0  0  0  0  0  0  0  0  0  0
    0.7990    7.1609    0.9102 N   0  3  0  0  0  0  0  0  0  0  0  0
    1.7580    7.5024    0.7761 H   0  0  0  0  0  0  0  0  0  0  0  0
    9.8456   -0.1265   -2.7081 N   0  3  0  0  0  0  0  0  0  0  0  0
   10.7032   -0.0079   -3.2600 H   0  0  0  0  0  0  0  0  0  0  0  0
  1  6  2  0  0  0  0
  1  2  1  0  0  0  0
  1 41  1  0  0  0  0
  2  3  2  0  0  0  0
  2 42  1  0  0  0  0
  3  4  1  0  0  0  0
  3 43  1  0  0  0  0
  4  5  2  0  0  0  0
  4  7  1  0  0  0  0
  5  6  1  0  0  0  0
  5 44  1  0  0  0  0
  6 45  1  0  0  0  0
  7  8  1  0  0  0  0
  7 46  1  0  0  0  0
  7 47  1  0  0  0  0
  8 17  1  0  0  0  0
  8  9  1  0  0  0  0
  8 75  1  0  0  0  0
  9 10  1  0  0  0  0
  9 48  1  0  0  0  0
  9 49  1  0  0  0  0
 10 11  1  0  0  0  0
 10 50  1  0  0  0  0
 10 51  1  0  0  0  0
 11 16  1  0  0  0  0
 11 12  1  0  0  0  0
 12 13  1  0  0  0  0
 12 52  1  0  0  0  0
 12 53  1  0  0  0  0
 13 14  1  0  0  0  0
 13 54  1  0  0  0  0
 13 55  1  0  0  0  0
 14 15  1  0  0  0  0
 14 16  1  0  0  0  0
 14 19  1  0  0  0  0
 16 17  1  0  0  0  0
 17 18  2  0  0  0  0
 19 20  2  0  0  0  0
 19 21  1  0  0  0  0
 21 22  1  0  0  0  0
 21 56  1  0  0  0  0
 22 23  1  0  0  0  0
 22 24  1  0  0  0  0
 22 30  1  0  0  0  0
 24 25  1  0  0  0  0
 24 57  1  0  0  0  0
 24 58  1  0  0  0  0
 25 26  1  0  0  0  0
 25 59  1  0  0  0  0
 25 60  1  0  0  0  0
 26 27  1  0  0  0  0
 26 61  1  0  0  0  0
 26 62  1  0  0  0  0
 27 28  1  0  0  0  0
 27 63  1  0  0  0  0
 28 29  1  0  0  0  0
 28 73  2  0  0  0  0
 29 65  1  0  0  0  0
 29 66  1  0  0  0  0
 30 31  2  0  0  0  0
 30 32  1  0  0  0  0
 32 40  1  0  0  0  0
 32 33  2  0  0  0  0
 33 34  1  0  0  0  0
 34 39  2  0  0  0  0
 34 35  1  0  0  0  0
 35 36  2  0  0  0  0
 35 67  1  0  0  0  0
 36 37  1  0  0  0  0
 36 68  1  0  0  0  0
 37 38  2  0  0  0  0
 37 69  1  0  0  0  0
 38 39  1  0  0  0  0
 38 70  1  0  0  0  0
 39 40  1  0  0  0  0
 64 73  1  0  0  0  0
 71 75  1  0  0  0  0
 72 75  1  0  0  0  0
 73 74  1  0  0  0  0
 75 76  1  0  0  0  0
M  CHG  2  73   1  75   1
M  END
$$$$
