ZINC00001505
  -OEChem-08230709403D

 31 32  0     0  0  0  0  0  0999 V2000
    1.3090   -0.3954   -0.0126 C   0  0  0  0  0  0  0  0  0  0  0  0
    2.0855    0.6482   -0.0144 N   0  0  0  0  0  0  0  0  0  0  0  0
    1.3292    1.7738   -0.0011 C   0  0  0  0  0  0  0  0  0  0  0  0
   -0.0165    1.3678    0.0096 C   0  0  0  0  0  0  0  0  0  0  0  0
    0.0021   -0.0041    0.0020 N   0  0  0  0  0  0  0  0  0  0  0  0
   -1.1671   -0.8869    0.0084 C   0  0  0  0  0  0  0  0  0  0  0  0
   -0.7354   -2.2491   -0.0030 O   0  0  0  0  0  0  0  0  0  0  0  0
   -1.8043   -3.1975    0.0021 C   0  0  0  0  0  0  0  0  0  0  0  0
   -2.1995   -3.5283   -1.4385 C   0  0  0  0  0  0  0  0  0  0  0  0
   -1.1125   -4.1872   -2.0913 O   0  0  0  0  0  0  0  0  0  0  0  0
   -1.3498   -4.4743    0.7122 C   0  0  0  0  0  0  0  0  0  0  0  0
   -0.3017   -5.0899   -0.0392 O   0  0  0  0  0  0  0  0  0  0  0  0
   -0.9710    2.2916    0.0237 N   0  0  0  0  0  0  0  0  0  0  0  0
   -0.6616    3.5781    0.0197 C   0  0  0  0  0  0  0  0  0  0  0  0
    0.5953    4.0037    0.0098 N   0  0  0  0  0  0  0  0  0  0  0  0
    1.6095    3.1487   -0.0007 C   0  0  0  0  0  0  0  0  0  0  0  0
    2.8890    3.5936   -0.0103 O   0  0  0  0  0  0  0  0  0  0  0  0
   -1.6843    4.5123    0.0259 N   0  0  0  0  0  0  0  0  0  0  0  0
    1.6488   -1.4205   -0.0214 H   0  0  0  0  0  0  0  0  0  0  0  0
   -1.7581   -0.7005    0.9051 H   0  0  0  0  0  0  0  0  0  0  0  0
   -1.7751   -0.6910   -0.8747 H   0  0  0  0  0  0  0  0  0  0  0  0
   -2.6618   -2.7758    0.5264 H   0  0  0  0  0  0  0  0  0  0  0  0
   -3.0715   -4.1823   -1.4350 H   0  0  0  0  0  0  0  0  0  0  0  0
   -2.4382   -2.6073   -1.9703 H   0  0  0  0  0  0  0  0  0  0  0  0
   -1.2929   -4.4271   -3.0105 H   0  0  0  0  0  0  0  0  0  0  0  0
   -0.9847   -4.2255    1.7087 H   0  0  0  0  0  0  0  0  0  0  0  0
   -2.1905   -5.1631    0.7948 H   0  0  0  0  0  0  0  0  0  0  0  0
    0.0361   -5.9067    0.3531 H   0  0  0  0  0  0  0  0  0  0  0  0
    0.7812    4.9863    0.0102 H   0  0  0  0  0  0  0  0  0  0  0  0
   -1.6080    5.0845    0.8425 H   0  0  0  0  0  0  0  0  0  0  0  0
   -2.6090    4.2192    0.0306 H   0  0  0  0  0  0  0  0  0  0  0  0
  1 19  1  0  0  0  0
  1  5  1  0  0  0  0
  1  2  2  0  0  0  0
  2  3  1  0  0  0  0
  3  4  2  0  0  0  0
  3 16  1  0  0  0  0
  4  5  1  0  0  0  0
  4 13  1  0  0  0  0
  5  6  1  0  0  0  0
  6  7  1  0  0  0  0
  6 20  1  0  0  0  0
  6 21  1  0  0  0  0
  7  8  1  0  0  0  0
  8  9  1  0  0  0  0
  8 11  1  0  0  0  0
  8 22  1  0  0  0  0
  9 10  1  0  0  0  0
  9 23  1  0  0  0  0
  9 24  1  0  0  0  0
 10 25  1  0  0  0  0
 11 12  1  0  0  0  0
 11 26  1  0  0  0  0
 11 27  1  0  0  0  0
 12 28  1  0  0  0  0
 13 14  2  0  0  0  0
 14 15  1  0  0  0  0
 14 18  1  0  0  0  0
 15 29  1  0  0  0  0
 15 16  1  0  0  0  0
 16 17  2  0  0  0  0
 18 31  1  0  0  0  0
 18 30  1  0  0  0  0
M  END
$$$$
ZINC00001899
  -OEChem-08230709403D

 33 34  0     0  0  0  0  0  0999 V2000
   -3.2917    2.6176    0.0464 C   0  0  0  0  0  0  0  0  0  0  0  0
   -2.5428    1.5539    0.0343 N   0  0  0  0  0  0  0  0  0  0  0  0
   -1.2389    1.9233    0.0183 C   0  0  0  0  0  0  0  0  0  0  0  0
   -0.0145    1.2150    0.0087 C   0  0  0  0  0  0  0  0  0  0  0  0
    0.0021   -0.0041    0.0020 O   0  0  0  0  0  0  0  0  0  0  0  0
    1.1365    1.9232    0.0015 N   0  0  0  0  0  0  0  0  0  0  0  0
    2.0147    1.4451   -0.0092 H   0  0  0  0  0  0  0  0  0  0  0  0
    1.1063    3.2859    0.0087 C   0  0  0  0  0  0  0  0  0  0  0  0
   -0.0246    3.9556    0.0222 N   0  0  0  0  0  0  0  0  0  0  0  0
   -1.2034    3.3223    0.0300 C   0  0  0  0  0  0  0  0  0  0  0  0
   -2.5081    3.7351    0.0442 N   0  0  0  0  0  0  0  0  0  0  0  0
   -2.9778    5.1227    0.0552 C   0  0  0  0  0  0  0  0  0  0  0  0
   -3.0358    5.6528   -1.3789 C   0  0  0  0  0  0  0  0  0  0  0  0
   -3.5264    7.1020   -1.3674 C   0  0  0  0  0  0  0  0  0  0  0  0
   -2.4998    7.9823   -0.6517 C   0  0  0  0  0  0  0  0  0  0  0  0
   -3.0097    9.3124   -0.5381 O   0  0  0  0  0  0  0  0  0  0  0  0
   -3.7035    7.5918   -2.8060 C   0  0  0  0  0  0  0  0  0  0  0  0
   -4.2713    8.9031   -2.7962 O   0  0  0  0  0  0  0  0  0  0  0  0
    2.2908    3.9787    0.0011 N   0  0  0  0  0  0  0  0  0  0  0  0
   -4.3717    2.6166    0.0566 H   0  0  0  0  0  0  0  0  0  0  0  0
   -3.9724    5.1661    0.4991 H   0  0  0  0  0  0  0  0  0  0  0  0
   -2.2914    5.7340    0.6410 H   0  0  0  0  0  0  0  0  0  0  0  0
   -2.0413    5.6094   -1.8228 H   0  0  0  0  0  0  0  0  0  0  0  0
   -3.7222    5.0415   -1.9647 H   0  0  0  0  0  0  0  0  0  0  0  0
   -4.4809    7.1583   -0.8443 H   0  0  0  0  0  0  0  0  0  0  0  0
   -2.3076    7.5806    0.3432 H   0  0  0  0  0  0  0  0  0  0  0  0
   -1.5719    7.9964   -1.2234 H   0  0  0  0  0  0  0  0  0  0  0  0
   -2.4099    9.9268   -0.0933 H   0  0  0  0  0  0  0  0  0  0  0  0
   -2.7335    7.6197   -3.3024 H   0  0  0  0  0  0  0  0  0  0  0  0
   -4.3666    6.9128   -3.3420 H   0  0  0  0  0  0  0  0  0  0  0  0
   -4.4120    9.2774   -3.6767 H   0  0  0  0  0  0  0  0  0  0  0  0
    2.8241    3.7360    0.8115 H   0  0  0  0  0  0  0  0  0  0  0  0
    2.2854    4.9487    0.0060 H   0  0  0  0  0  0  0  0  0  0  0  0
  1 11  1  0  0  0  0
  1  2  2  0  0  0  0
  1 20  1  0  0  0  0
  2  3  1  0  0  0  0
  3 10  2  0  0  0  0
  3  4  1  0  0  0  0
  4  5  2  0  0  0  0
  4  6  1  0  0  0  0
  6  7  1  0  0  0  0
  6  8  1  0  0  0  0
  8  9  2  0  0  0  0
  8 19  1  0  0  0  0
  9 10  1  0  0  0  0
 10 11  1  0  0  0  0
 11 12  1  0  0  0  0
 12 13  1  0  0  0  0
 12 21  1  0  0  0  0
 12 22  1  0  0  0  0
 13 14  1  0  0  0  0
 13 23  1  0  0  0  0
 13 24  1  0  0  0  0
 14 15  1  0  0  0  0
 14 17  1  0  0  0  0
 14 25  1  0  0  0  0
 15 16  1  0  0  0  0
 15 26  1  0  0  0  0
 15 27  1  0  0  0  0
 16 28  1  0  0  0  0
 17 18  1  0  0  0  0
 17 29  1  0  0  0  0
 17 30  1  0  0  0  0
 18 31  1  0  0  0  0
 19 32  1  0  0  0  0
 19 33  1  0  0  0  0
M  END
$$$$
ZINC00025672
  -OEChem-08230709403D

 31 32  0     1  0  0  0  0  0999 V2000
    6.2065    3.1877    2.8765 C   0  0  0  0  0  0  0  0  0  0  0  0
    4.8098    3.4298    2.3648 C   0  0  0  0  0  0  0  0  0  0  0  0
    3.9902    2.3911    2.0957 C   0  0  0  0  0  0  0  0  0  0  0  0
    2.7249    2.6288    1.6321 N   0  0  0  0  0  0  0  0  0  0  0  0
    2.2917    3.8876    1.4372 C   0  0  0  0  0  0  0  0  0  0  0  0
    1.1652    4.0760    1.0202 O   0  0  0  0  0  0  0  0  0  0  0  0
    3.0860    4.9414    1.7023 N   0  0  0  0  0  0  0  0  0  0  0  0
    2.7451    5.8705    1.5589 H   0  0  0  0  0  0  0  0  0  0  0  0
    4.3395    4.7494    2.1604 C   0  0  0  0  0  0  0  0  0  0  0  0
    5.0605    5.7022    2.3957 O   0  0  0  0  0  0  0  0  0  0  0  0
    1.8356    1.5020    1.3396 C   0  0  1  0  0  0  0  0  0  0  0  0
    2.3769    0.5630    1.4559 H   0  0  0  0  0  0  0  0  0  0  0  0
    0.6221    1.5320    2.2889 C   0  0  0  0  0  0  0  0  0  0  0  0
   -0.5991    1.6164    1.3411 C   0  0  1  0  0  0  0  0  0  0  0  0
   -0.9379    2.6468    1.2341 H   0  0  0  0  0  0  0  0  0  0  0  0
   -0.0127    1.0858    0.0080 C   0  0  2  0  0  0  0  0  0  0  0  0
    0.0021   -0.0041    0.0020 H   0  0  0  0  0  0  0  0  0  0  0  0
    1.3315    1.6126   -0.0020 O   0  0  0  0  0  0  0  0  0  0  0  0
   -0.8091    1.6187   -1.1847 C   0  0  0  0  0  0  0  0  0  0  0  0
   -0.2860    1.0635   -2.3931 O   0  0  0  0  0  0  0  0  0  0  0  0
   -1.6605    0.7775    1.8010 O   0  0  0  0  0  0  0  0  0  0  0  0
    6.8927    3.1038    2.0338 H   0  0  0  0  0  0  0  0  0  0  0  0
    6.5104    4.0202    3.5111 H   0  0  0  0  0  0  0  0  0  0  0  0
    6.2265    2.2639    3.4547 H   0  0  0  0  0  0  0  0  0  0  0  0
    4.3315    1.3776    2.2459 H   0  0  0  0  0  0  0  0  0  0  0  0
    0.5807    0.6198    2.8841 H   0  0  0  0  0  0  0  0  0  0  0  0
    0.6660    2.4075    2.9367 H   0  0  0  0  0  0  0  0  0  0  0  0
   -1.8562    1.3355   -1.0782 H   0  0  0  0  0  0  0  0  0  0  0  0
   -0.7283    2.7052   -1.2193 H   0  0  0  0  0  0  0  0  0  0  0  0
   -0.7441    1.3584   -3.1920 H   0  0  0  0  0  0  0  0  0  0  0  0
   -2.0598    1.0684    2.6323 H   0  0  0  0  0  0  0  0  0  0  0  0
  1  2  1  0  0  0  0
  1 22  1  0  0  0  0
  1 23  1  0  0  0  0
  1 24  1  0  0  0  0
  2  9  1  0  0  0  0
  2  3  2  0  0  0  0
  3  4  1  0  0  0  0
  3 25  1  0  0  0  0
  4  5  1  0  0  0  0
  4 11  1  0  0  0  0
  5  6  2  0  0  0  0
  5  7  1  0  0  0  0
  7  8  1  0  0  0  0
  7  9  1  0  0  0  0
  9 10  2  0  0  0  0
 11 12  1  0  0  0  0
 11 18  1  0  0  0  0
 11 13  1  0  0  0  0
 13 14  1  0  0  0  0
 13 26  1  0  0  0  0
 13 27  1  0  0  0  0
 14 15  1  0  0  0  0
 14 16  1  0  0  0  0
 14 21  1  0  0  0  0
 16 17  1  0  0  0  0
 16 18  1  0  0  0  0
 16 19  1  0  0  0  0
 19 20  1  0  0  0  0
 19 28  1  0  0  0  0
 19 29  1  0  0  0  0
 20 30  1  0  0  0  0
 21 31  1  0  0  0  0
M  END
$$$$
ZINC00155696
  -OEChem-08230709403D

 28 29  0     1  0  0  0  0  0999 V2000
   -3.0851   -1.7391    1.0377 C   0  0  0  0  0  0  0  0  0  0  0  0
   -2.0908   -1.2509    0.2656 C   0  0  0  0  0  0  0  0  0  0  0  0
   -1.0770   -0.5334    0.8397 N   0  0  0  0  0  0  0  0  0  0  0  0
   -1.0589   -0.3141    2.1670 C   0  0  0  0  0  0  0  0  0  0  0  0
   -0.1460    0.3222    2.6570 O   0  0  0  0  0  0  0  0  0  0  0  0
   -2.0399   -0.7847    2.9593 N   0  0  0  0  0  0  0  0  0  0  0  0
   -2.0146   -0.6058    3.9428 H   0  0  0  0  0  0  0  0  0  0  0  0
   -3.0566   -1.4964    2.4322 C   0  0  0  0  0  0  0  0  0  0  0  0
   -3.9424   -1.9262    3.1490 O   0  0  0  0  0  0  0  0  0  0  0  0
    0.0021   -0.0041    0.0020 C   0  0  1  0  0  0  0  0  0  0  0  0
   -0.0889   -0.3792   -1.0173 H   0  0  0  0  0  0  0  0  0  0  0  0
   -0.0189    1.5406    0.0105 C   0  0  0  0  0  0  0  0  0  0  0  0
    1.4746    1.9364   -0.0016 C   0  0  1  0  0  0  0  0  0  0  0  0
    1.7270    2.5024    0.8950 H   0  0  0  0  0  0  0  0  0  0  0  0
    2.2212    0.5840   -0.0160 C   0  0  2  0  0  0  0  0  0  0  0  0
    2.4705    0.2991   -1.0381 H   0  0  0  0  0  0  0  0  0  0  0  0
    1.2881   -0.3587    0.5553 O   0  0  0  0  0  0  0  0  0  0  0  0
    3.4872    0.6654    0.8394 C   0  0  0  0  0  0  0  0  0  0  0  0
    4.1843   -0.5805    0.7782 O   0  0  0  0  0  0  0  0  0  0  0  0
    1.7831    2.6911   -1.1752 O   0  0  0  0  0  0  0  0  0  0  0  0
   -3.8915   -2.3067    0.5974 H   0  0  0  0  0  0  0  0  0  0  0  0
   -2.0956   -1.4263   -0.8001 H   0  0  0  0  0  0  0  0  0  0  0  0
   -0.5219    1.9206   -0.8786 H   0  0  0  0  0  0  0  0  0  0  0  0
   -0.5048    1.9110    0.9131 H   0  0  0  0  0  0  0  0  0  0  0  0
    4.1302    1.4605    0.4619 H   0  0  0  0  0  0  0  0  0  0  0  0
    3.2142    0.8787    1.8729 H   0  0  0  0  0  0  0  0  0  0  0  0
    4.9990   -0.6013    1.2986 H   0  0  0  0  0  0  0  0  0  0  0  0
    1.2955    3.5231   -1.2472 H   0  0  0  0  0  0  0  0  0  0  0  0
  1  8  1  0  0  0  0
  1  2  2  0  0  0  0
  1 21  1  0  0  0  0
  2  3  1  0  0  0  0
  2 22  1  0  0  0  0
  3  4  1  0  0  0  0
  3 10  1  0  0  0  0
  4  5  2  0  0  0  0
  4  6  1  0  0  0  0
  6  7  1  0  0  0  0
  6  8  1  0  0  0  0
  8  9  2  0  0  0  0
 10 11  1  0  0  0  0
 10 17  1  0  0  0  0
 10 12  1  0  0  0  0
 12 13  1  0  0  0  0
 12 23  1  0  0  0  0
 12 24  1  0  0  0  0
 13 14  1  0  0  0  0
 13 15  1  0  0  0  0
 13 20  1  0  0  0  0
 15 16  1  0  0  0  0
 15 17  1  0  0  0  0
 15 18  1  0  0  0  0
 18 19  1  0  0  0  0
 18 25  1  0  0  0  0
 18 26  1  0  0  0  0
 19 27  1  0  0  0  0
 20 28  1  0  0  0  0
M  END
$$$$
ZINC01530555
  -OEChem-08230709403D

 27 28  0     0  0  0  0  0  0999 V2000
   -3.2917    2.6176    0.0464 C   0  0  0  0  0  0  0  0  0  0  0  0
   -2.5428    1.5539    0.0343 N   0  0  0  0  0  0  0  0  0  0  0  0
   -1.2389    1.9233    0.0183 C   0  0  0  0  0  0  0  0  0  0  0  0
   -0.0145    1.2150    0.0087 C   0  0  0  0  0  0  0  0  0  0  0  0
    0.0021   -0.0041    0.0020 O   0  0  0  0  0  0  0  0  0  0  0  0
    1.1365    1.9232    0.0015 N   0  0  0  0  0  0  0  0  0  0  0  0
    2.0147    1.4451   -0.0092 H   0  0  0  0  0  0  0  0  0  0  0  0
    1.1063    3.2859    0.0087 C   0  0  0  0  0  0  0  0  0  0  0  0
   -0.0246    3.9556    0.0222 N   0  0  0  0  0  0  0  0  0  0  0  0
   -1.2034    3.3223    0.0300 C   0  0  0  0  0  0  0  0  0  0  0  0
   -2.5081    3.7351    0.0442 N   0  0  0  0  0  0  0  0  0  0  0  0
   -2.9778    5.1227    0.0552 C   0  0  0  0  0  0  0  0  0  0  0  0
   -4.4066    5.1418    0.0688 O   0  0  0  0  0  0  0  0  0  0  0  0
   -4.9702    6.4549    0.0803 C   0  0  0  0  0  0  0  0  0  0  0  0
   -6.4969    6.3546    0.0942 C   0  0  0  0  0  0  0  0  0  0  0  0
   -6.9233    5.7494    1.3165 O   0  0  0  0  0  0  0  0  0  0  0  0
    2.2908    3.9787    0.0011 N   0  0  0  0  0  0  0  0  0  0  0  0
   -4.3717    2.6166    0.0566 H   0  0  0  0  0  0  0  0  0  0  0  0
   -2.5992    5.6274    0.9440 H   0  0  0  0  0  0  0  0  0  0  0  0
   -2.6160    5.6358   -0.8359 H   0  0  0  0  0  0  0  0  0  0  0  0
   -4.6329    6.9873    0.9696 H   0  0  0  0  0  0  0  0  0  0  0  0
   -4.6498    6.9957   -0.8103 H   0  0  0  0  0  0  0  0  0  0  0  0
   -6.9273    7.3527    0.0134 H   0  0  0  0  0  0  0  0  0  0  0  0
   -6.8287    5.7465   -0.7474 H   0  0  0  0  0  0  0  0  0  0  0  0
   -7.8824    5.6537    1.3943 H   0  0  0  0  0  0  0  0  0  0  0  0
    2.8241    3.7360    0.8115 H   0  0  0  0  0  0  0  0  0  0  0  0
    2.2854    4.9487    0.0060 H   0  0  0  0  0  0  0  0  0  0  0  0
  1 11  1  0  0  0  0
  1  2  2  0  0  0  0
  1 18  1  0  0  0  0
  2  3  1  0  0  0  0
  3 10  2  0  0  0  0
  3  4  1  0  0  0  0
  4  5  2  0  0  0  0
  4  6  1  0  0  0  0
  6  7  1  0  0  0  0
  6  8  1  0  0  0  0
  8  9  2  0  0  0  0
  8 17  1  0  0  0  0
  9 10  1  0  0  0  0
 10 11  1  0  0  0  0
 11 12  1  0  0  0  0
 12 13  1  0  0  0  0
 12 19  1  0  0  0  0
 12 20  1  0  0  0  0
 13 14  1  0  0  0  0
 14 15  1  0  0  0  0
 14 21  1  0  0  0  0
 14 22  1  0  0  0  0
 15 16  1  0  0  0  0
 15 23  1  0  0  0  0
 15 24  1  0  0  0  0
 16 25  1  0  0  0  0
 17 26  1  0  0  0  0
 17 27  1  0  0  0  0
M  END
$$$$
ZINC01851238
  -OEChem-08230709403D

 27 28  0     1  0  0  0  0  0999 V2000
   -1.2165    2.1229    0.0194 C   0  0  0  0  0  0  0  0  0  0  0  0
   -1.2342    3.4732    0.0320 C   0  0  0  0  0  0  0  0  0  0  0  0
   -0.0056    4.1784    0.0246 C   0  0  0  0  0  0  0  0  0  0  0  0
    0.0040    5.3962    0.0310 O   0  0  0  0  0  0  0  0  0  0  0  0
    1.1530    3.4889    0.0098 N   0  0  0  0  0  0  0  0  0  0  0  0
    2.0243    3.9796    0.0041 H   0  0  0  0  0  0  0  0  0  0  0  0
    1.1418    2.1430    0.0027 C   0  0  0  0  0  0  0  0  0  0  0  0
    2.1947    1.5350   -0.0102 O   0  0  0  0  0  0  0  0  0  0  0  0
   -0.0178    1.4608    0.0101 N   0  0  0  0  0  0  0  0  0  0  0  0
    0.0021   -0.0041    0.0020 C   0  0  1  0  0  0  0  0  0  0  0  0
    1.0168   -0.3722   -0.1496 H   0  0  0  0  0  0  0  0  0  0  0  0
   -0.5910   -0.5652    1.3195 C   0  0  0  0  0  0  0  0  0  0  0  0
   -1.0676   -1.9731    0.8868 C   0  0  1  0  0  0  0  0  0  0  0  0
   -2.0301   -2.2067    1.3420 H   0  0  0  0  0  0  0  0  0  0  0  0
   -1.2058   -1.8710   -0.6446 C   0  0  2  0  0  0  0  0  0  0  0  0
   -0.5124   -2.5605   -1.1261 H   0  0  0  0  0  0  0  0  0  0  0  0
   -0.8859   -0.5190   -1.0133 O   0  0  0  0  0  0  0  0  0  0  0  0
   -2.6406   -2.2014   -1.0606 C   0  0  0  0  0  0  0  0  0  0  0  0
   -2.7312   -2.2182   -2.4866 O   0  0  0  0  0  0  0  0  0  0  0  0
   -0.1153   -2.9392    1.2292 F   0  0  0  0  0  0  0  0  0  0  0  0
   -2.7421    4.3332    0.0510 Cl  0  0  0  0  0  0  0  0  0  0  0  0
   -2.1430    1.5679    0.0208 H   0  0  0  0  0  0  0  0  0  0  0  0
    0.1746   -0.6342    2.0923 H   0  0  0  0  0  0  0  0  0  0  0  0
   -1.4297    0.0428    1.6586 H   0  0  0  0  0  0  0  0  0  0  0  0
   -2.9168   -3.1798   -0.6674 H   0  0  0  0  0  0  0  0  0  0  0  0
   -3.3176   -1.4456   -0.6624 H   0  0  0  0  0  0  0  0  0  0  0  0
   -3.6150   -2.4215   -2.8222 H   0  0  0  0  0  0  0  0  0  0  0  0
  1  9  1  0  0  0  0
  1  2  2  0  0  0  0
  1 22  1  0  0  0  0
  2  3  1  0  0  0  0
  2 21  1  0  0  0  0
  3  4  2  0  0  0  0
  3  5  1  0  0  0  0
  5  6  1  0  0  0  0
  5  7  1  0  0  0  0
  7  8  2  0  0  0  0
  7  9  1  0  0  0  0
  9 10  1  0  0  0  0
 10 11  1  0  0  0  0
 10 17  1  0  0  0  0
 10 12  1  0  0  0  0
 12 13  1  0  0  0  0
 12 23  1  0  0  0  0
 12 24  1  0  0  0  0
 13 14  1  0  0  0  0
 13 15  1  0  0  0  0
 13 20  1  0  0  0  0
 15 16  1  0  0  0  0
 15 17  1  0  0  0  0
 15 18  1  0  0  0  0
 18 19  1  0  0  0  0
 18 25  1  0  0  0  0
 18 26  1  0  0  0  0
 19 27  1  0  0  0  0
M  END
$$$$
ZINC02046904
  -OEChem-08230709403D

 29 29  0     0  0  0  0  0  0999 V2000
   -1.1539   -0.8136    2.7951 C   0  0  0  0  0  0  0  0  0  0  0  0
   -2.2988   -0.1659    2.0597 C   0  0  0  0  0  0  0  0  0  0  0  0
   -2.1005    0.9593    1.3401 C   0  0  0  0  0  0  0  0  0  0  0  0
   -3.1520    1.5371    0.6822 N   0  0  0  0  0  0  0  0  0  0  0  0
   -3.0067    2.3745    0.1552 H   0  0  0  0  0  0  0  0  0  0  0  0
   -4.3795    0.9891    0.7377 C   0  0  0  0  0  0  0  0  0  0  0  0
   -5.2989    1.5166    0.1421 O   0  0  0  0  0  0  0  0  0  0  0  0
   -4.6052   -0.1323    1.4472 N   0  0  0  0  0  0  0  0  0  0  0  0
   -5.5246   -0.5242    1.4801 H   0  0  0  0  0  0  0  0  0  0  0  0
   -3.5965   -0.7292    2.1137 C   0  0  0  0  0  0  0  0  0  0  0  0
   -3.7997   -1.7438    2.7559 O   0  0  0  0  0  0  0  0  0  0  0  0
   -0.7288    1.5792    1.2668 C   0  0  0  0  0  0  0  0  0  0  0  0
   -0.0127    1.0858    0.0080 C   0  0  0  0  0  0  0  0  0  0  0  0
    1.4227    1.6154   -0.0028 C   0  0  0  0  0  0  0  0  0  0  0  0
    2.1264    1.0612   -1.1162 O   0  0  0  0  0  0  0  0  0  0  0  0
   -0.7527    1.5927   -1.2315 C   0  0  0  0  0  0  0  0  0  0  0  0
   -0.1537    1.0374   -2.4041 O   0  0  0  0  0  0  0  0  0  0  0  0
   -1.0896   -0.4017    3.8023 H   0  0  0  0  0  0  0  0  0  0  0  0
   -1.3210   -1.8892    2.8525 H   0  0  0  0  0  0  0  0  0  0  0  0
   -0.2231   -0.6184    2.2626 H   0  0  0  0  0  0  0  0  0  0  0  0
   -0.1536    1.2938    2.1476 H   0  0  0  0  0  0  0  0  0  0  0  0
   -0.8222    2.6646    1.2299 H   0  0  0  0  0  0  0  0  0  0  0  0
    0.0021   -0.0041    0.0020 H   0  0  0  0  0  0  0  0  0  0  0  0
    1.4084    2.7021   -0.0864 H   0  0  0  0  0  0  0  0  0  0  0  0
    1.9227    1.3287    0.9223 H   0  0  0  0  0  0  0  0  0  0  0  0
    3.0454    1.3541   -1.1860 H   0  0  0  0  0  0  0  0  0  0  0  0
   -1.7985    1.2898   -1.1795 H   0  0  0  0  0  0  0  0  0  0  0  0
   -0.6910    2.6801   -1.2722 H   0  0  0  0  0  0  0  0  0  0  0  0
   -0.5730    1.3163   -3.2297 H   0  0  0  0  0  0  0  0  0  0  0  0
  1  2  1  0  0  0  0
  1 18  1  0  0  0  0
  1 19  1  0  0  0  0
  1 20  1  0  0  0  0
  2 10  1  0  0  0  0
  2  3  2  0  0  0  0
  3  4  1  0  0  0  0
  3 12  1  0  0  0  0
  4  5  1  0  0  0  0
  4  6  1  0  0  0  0
  6  7  2  0  0  0  0
  6  8  1  0  0  0  0
  8  9  1  0  0  0  0
  8 10  1  0  0  0  0
 10 11  2  0  0  0  0
 12 13  1  0  0  0  0
 12 21  1  0  0  0  0
 12 22  1  0  0  0  0
 13 14  1  0  0  0  0
 13 16  1  0  0  0  0
 13 23  1  0  0  0  0
 14 15  1  0  0  0  0
 14 24  1  0  0  0  0
 14 25  1  0  0  0  0
 15 26  1  0  0  0  0
 16 17  1  0  0  0  0
 16 27  1  0  0  0  0
 16 28  1  0  0  0  0
 17 29  1  0  0  0  0
M  END
$$$$
ZINC02046905
  -OEChem-08230709403D

 25 25  0     0  0  0  0  0  0999 V2000
    1.2258    3.2360    2.5616 C   0  0  0  0  0  0  0  0  0  0  0  0
    0.9187    1.8607    3.0958 C   0  0  0  0  0  0  0  0  0  0  0  0
    0.0000    1.0800    2.4877 C   0  0  0  0  0  0  0  0  0  0  0  0
   -0.2701   -0.1643    2.9887 N   0  0  0  0  0  0  0  0  0  0  0  0
   -0.9558   -0.7396    2.5428 H   0  0  0  0  0  0  0  0  0  0  0  0
    0.3782   -0.6211    4.0755 C   0  0  0  0  0  0  0  0  0  0  0  0
    0.1258   -1.7316    4.5014 O   0  0  0  0  0  0  0  0  0  0  0  0
    1.2988    0.1359    4.7009 N   0  0  0  0  0  0  0  0  0  0  0  0
    1.7688   -0.2182    5.5095 H   0  0  0  0  0  0  0  0  0  0  0  0
    1.5899    1.3698    4.2415 C   0  0  0  0  0  0  0  0  0  0  0  0
    2.4227    2.0553    4.8067 O   0  0  0  0  0  0  0  0  0  0  0  0
   -0.7288    1.5792    1.2668 C   0  0  0  0  0  0  0  0  0  0  0  0
   -0.0127    1.0858    0.0080 C   0  0  0  0  0  0  0  0  0  0  0  0
   -0.7527    1.5927   -1.2315 C   0  0  0  0  0  0  0  0  0  0  0  0
   -0.0838    1.1318   -2.4072 O   0  0  0  0  0  0  0  0  0  0  0  0
    0.5657    3.9644    3.0325 H   0  0  0  0  0  0  0  0  0  0  0  0
    2.2627    3.4887    2.7833 H   0  0  0  0  0  0  0  0  0  0  0  0
    1.0711    3.2496    1.4827 H   0  0  0  0  0  0  0  0  0  0  0  0
   -0.7436    2.6691    1.2728 H   0  0  0  0  0  0  0  0  0  0  0  0
   -1.7514    1.2020    1.2746 H   0  0  0  0  0  0  0  0  0  0  0  0
    0.0021   -0.0041    0.0020 H   0  0  0  0  0  0  0  0  0  0  0  0
    1.0099    1.4631    0.0003 H   0  0  0  0  0  0  0  0  0  0  0  0
   -1.7753    1.2154   -1.2238 H   0  0  0  0  0  0  0  0  0  0  0  0
   -0.7675    2.6825   -1.2255 H   0  0  0  0  0  0  0  0  0  0  0  0
   -0.4991    1.4161   -3.2329 H   0  0  0  0  0  0  0  0  0  0  0  0
  1  2  1  0  0  0  0
  1 16  1  0  0  0  0
  1 17  1  0  0  0  0
  1 18  1  0  0  0  0
  2 10  1  0  0  0  0
  2  3  2  0  0  0  0
  3  4  1  0  0  0  0
  3 12  1  0  0  0  0
  4  5  1  0  0  0  0
  4  6  1  0  0  0  0
  6  7  2  0  0  0  0
  6  8  1  0  0  0  0
  8  9  1  0  0  0  0
  8 10  1  0  0  0  0
 10 11  2  0  0  0  0
 12 13  1  0  0  0  0
 12 19  1  0  0  0  0
 12 20  1  0  0  0  0
 13 14  1  0  0  0  0
 13 21  1  0  0  0  0
 13 22  1  0  0  0  0
 14 15  1  0  0  0  0
 14 23  1  0  0  0  0
 14 24  1  0  0  0  0
 15 25  1  0  0  0  0
M  END
$$$$
ZINC03792176
  -OEChem-08230709403D

 27 28  0     1  0  0  0  0  0999 V2000
   -1.2160    2.1225    0.0194 C   0  0  0  0  0  0  0  0  0  0  0  0
   -1.2339    3.4728    0.0320 C   0  0  0  0  0  0  0  0  0  0  0  0
   -0.0059    4.1781    0.0241 C   0  0  0  0  0  0  0  0  0  0  0  0
    0.0034    5.3959    0.0302 O   0  0  0  0  0  0  0  0  0  0  0  0
    1.1529    3.4889    0.0093 N   0  0  0  0  0  0  0  0  0  0  0  0
    2.0241    3.9797    0.0032 H   0  0  0  0  0  0  0  0  0  0  0  0
    1.1418    2.1430    0.0027 C   0  0  0  0  0  0  0  0  0  0  0  0
    2.1947    1.5351   -0.0098 O   0  0  0  0  0  0  0  0  0  0  0  0
   -0.0178    1.4608    0.0101 N   0  0  0  0  0  0  0  0  0  0  0  0
    0.0021   -0.0041    0.0020 C   0  0  1  0  0  0  0  0  0  0  0  0
    1.0168   -0.3722   -0.1496 H   0  0  0  0  0  0  0  0  0  0  0  0
   -0.5910   -0.5652    1.3195 C   0  0  0  0  0  0  0  0  0  0  0  0
   -1.0676   -1.9731    0.8868 C   0  0  1  0  0  0  0  0  0  0  0  0
   -2.0301   -2.2067    1.3420 H   0  0  0  0  0  0  0  0  0  0  0  0
   -1.2058   -1.8710   -0.6446 C   0  0  2  0  0  0  0  0  0  0  0  0
   -0.5124   -2.5605   -1.1261 H   0  0  0  0  0  0  0  0  0  0  0  0
   -0.8859   -0.5190   -1.0133 O   0  0  0  0  0  0  0  0  0  0  0  0
   -2.6406   -2.2014   -1.0606 C   0  0  0  0  0  0  0  0  0  0  0  0
   -2.7312   -2.2182   -2.4866 O   0  0  0  0  0  0  0  0  0  0  0  0
   -0.1153   -2.9392    1.2292 F   0  0  0  0  0  0  0  0  0  0  0  0
   -3.0539    4.5102    0.0549 I   0  0  0  0  0  0  0  0  0  0  0  0
   -2.1424    1.5675    0.0211 H   0  0  0  0  0  0  0  0  0  0  0  0
    0.1746   -0.6342    2.0923 H   0  0  0  0  0  0  0  0  0  0  0  0
   -1.4297    0.0428    1.6586 H   0  0  0  0  0  0  0  0  0  0  0  0
   -2.9168   -3.1798   -0.6674 H   0  0  0  0  0  0  0  0  0  0  0  0
   -3.3176   -1.4456   -0.6624 H   0  0  0  0  0  0  0  0  0  0  0  0
   -3.6150   -2.4215   -2.8222 H   0  0  0  0  0  0  0  0  0  0  0  0
  1  9  1  0  0  0  0
  1  2  2  0  0  0  0
  1 22  1  0  0  0  0
  2  3  1  0  0  0  0
  2 21  1  0  0  0  0
  3  4  2  0  0  0  0
  3  5  1  0  0  0  0
  5  6  1  0  0  0  0
  5  7  1  0  0  0  0
  7  8  2  0  0  0  0
  7  9  1  0  0  0  0
  9 10  1  0  0  0  0
 10 11  1  0  0  0  0
 10 17  1  0  0  0  0
 10 12  1  0  0  0  0
 12 13  1  0  0  0  0
 12 23  1  0  0  0  0
 12 24  1  0  0  0  0
 13 14  1  0  0  0  0
 13 15  1  0  0  0  0
 13 20  1  0  0  0  0
 15 16  1  0  0  0  0
 15 17  1  0  0  0  0
 15 18  1  0  0  0  0
 18 19  1  0  0  0  0
 18 25  1  0  0  0  0
 18 26  1  0  0  0  0
 19 27  1  0  0  0  0
M  END
$$$$
ZINC03792179
  -OEChem-08230709403D

 27 28  0     1  0  0  0  0  0999 V2000
    0.5213    1.0867   -4.5748 C   0  0  0  0  0  0  0  0  0  0  0  0
   -0.2545    0.9767   -3.4752 C   0  0  0  0  0  0  0  0  0  0  0  0
    0.0086    1.7534   -2.3798 N   0  0  0  0  0  0  0  0  0  0  0  0
    1.0298    2.6292   -2.3900 C   0  0  0  0  0  0  0  0  0  0  0  0
    1.2429    3.3128   -1.4074 O   0  0  0  0  0  0  0  0  0  0  0  0
    1.8221    2.7555   -3.4708 N   0  0  0  0  0  0  0  0  0  0  0  0
    2.5815    3.4060   -3.4584 H   0  0  0  0  0  0  0  0  0  0  0  0
    1.5959    2.0083   -4.5702 C   0  0  0  0  0  0  0  0  0  0  0  0
    2.3092    2.1256   -5.5503 O   0  0  0  0  0  0  0  0  0  0  0  0
   -0.8335    1.6344   -1.1869 C   0  0  1  0  0  0  0  0  0  0  0  0
   -1.6949    0.9969   -1.3858 H   0  0  0  0  0  0  0  0  0  0  0  0
   -0.0127    1.0858    0.0080 C   0  0  0  0  0  0  0  0  0  0  0  0
   -0.8095    1.6208    1.2227 C   0  0  1  0  0  0  0  0  0  0  0  0
   -0.1304    1.9642    2.0031 H   0  0  0  0  0  0  0  0  0  0  0  0
   -1.6186    2.8025    0.6521 C   0  0  2  0  0  0  0  0  0  0  0  0
   -2.6857    2.5982    0.7400 H   0  0  0  0  0  0  0  0  0  0  0  0
   -1.2592    2.9373   -0.7331 O   0  0  0  0  0  0  0  0  0  0  0  0
   -1.2711    4.0870    1.4071 C   0  0  0  0  0  0  0  0  0  0  0  0
   -2.0990    5.1535    0.9389 O   0  0  0  0  0  0  0  0  0  0  0  0
   -1.6679    0.6337    1.7185 F   0  0  0  0  0  0  0  0  0  0  0  0
    0.3249    0.4794   -5.4461 H   0  0  0  0  0  0  0  0  0  0  0  0
   -1.0785    0.2787   -3.4602 H   0  0  0  0  0  0  0  0  0  0  0  0
    0.0021   -0.0041    0.0020 H   0  0  0  0  0  0  0  0  0  0  0  0
    1.0008    1.4868    0.0005 H   0  0  0  0  0  0  0  0  0  0  0  0
   -1.4389    3.9382    2.4738 H   0  0  0  0  0  0  0  0  0  0  0  0
   -0.2243    4.3375    1.2354 H   0  0  0  0  0  0  0  0  0  0  0  0
   -1.9331    6.0006    1.3748 H   0  0  0  0  0  0  0  0  0  0  0  0
  1  8  1  0  0  0  0
  1  2  2  0  0  0  0
  1 21  1  0  0  0  0
  2  3  1  0  0  0  0
  2 22  1  0  0  0  0
  3  4  1  0  0  0  0
  3 10  1  0  0  0  0
  4  5  2  0  0  0  0
  4  6  1  0  0  0  0
  6  7  1  0  0  0  0
  6  8  1  0  0  0  0
  8  9  2  0  0  0  0
 10 11  1  0  0  0  0
 10 17  1  0  0  0  0
 10 12  1  0  0  0  0
 12 13  1  0  0  0  0
 12 23  1  0  0  0  0
 12 24  1  0  0  0  0
 13 14  1  0  0  0  0
 13 15  1  0  0  0  0
 13 20  1  0  0  0  0
 15 16  1  0  0  0  0
 15 17  1  0  0  0  0
 15 18  1  0  0  0  0
 18 19  1  0  0  0  0
 18 25  1  0  0  0  0
 18 26  1  0  0  0  0
 19 27  1  0  0  0  0
M  END
$$$$
ZINC03805724
  -OEChem-08230709403D

 31 32  0     1  0  0  0  0  0999 V2000
    2.0476    4.3235    3.3042 C   0  0  0  0  0  0  0  0  0  0  0  0
    2.8231    3.9424    4.3421 C   0  0  0  0  0  0  0  0  0  0  0  0
    4.1247    4.4864    4.4656 C   0  0  0  0  0  0  0  0  0  0  0  0
    4.8408    4.1615    5.3955 O   0  0  0  0  0  0  0  0  0  0  0  0
    4.5640    5.3670    3.5439 N   0  0  0  0  0  0  0  0  0  0  0  0
    5.4821    5.7553    3.6240 H   0  0  0  0  0  0  0  0  0  0  0  0
    3.7719    5.7256    2.5164 C   0  0  0  0  0  0  0  0  0  0  0  0
    4.1816    6.5211    1.6932 O   0  0  0  0  0  0  0  0  0  0  0  0
    2.5332    5.2166    2.3876 N   0  0  0  0  0  0  0  0  0  0  0  0
    1.6940    5.6267    1.2590 C   0  0  1  0  0  0  0  0  0  0  0  0
    1.5898    6.7117    1.2579 H   0  0  0  0  0  0  0  0  0  0  0  0
    2.3418    5.1720   -0.0525 C   0  0  0  0  0  0  0  0  0  0  0  0
    2.4119    3.6420   -0.0709 C   0  0  1  0  0  0  0  0  0  0  0  0
    3.0508    3.2968    0.7419 H   0  0  0  0  0  0  0  0  0  0  0  0
    1.0024    3.0722    0.1089 C   0  0  2  0  0  0  0  0  0  0  0  0
    0.3746    3.3845   -0.7256 H   0  0  0  0  0  0  0  0  0  0  0  0
    0.4459    3.5586    1.3320 O   0  0  0  0  0  0  0  0  0  0  0  0
    0.3122    4.9802    1.3875 C   0  0  0  0  0  0  0  0  0  0  0  0
    1.0713    1.5443    0.1517 C   0  0  0  0  0  0  0  0  0  0  0  0
   -0.2526    1.0091    0.2038 O   0  0  0  0  0  0  0  0  0  0  0  0
    2.9483    3.2036   -1.3208 O   0  0  0  0  0  0  0  0  0  0  0  0
    2.1071    2.5710    5.7548 I   0  0  0  0  0  0  0  0  0  0  0  0
    1.0505    3.9230    3.1960 H   0  0  0  0  0  0  0  0  0  0  0  0
    1.7435    5.5199   -0.8945 H   0  0  0  0  0  0  0  0  0  0  0  0
    3.3479    5.5853   -0.1246 H   0  0  0  0  0  0  0  0  0  0  0  0
   -0.3245    5.3177    0.5696 H   0  0  0  0  0  0  0  0  0  0  0  0
   -0.1361    5.2663    2.3389 H   0  0  0  0  0  0  0  0  0  0  0  0
    1.6252    1.2303    1.0364 H   0  0  0  0  0  0  0  0  0  0  0  0
    1.5764    1.1782   -0.7421 H   0  0  0  0  0  0  0  0  0  0  0  0
   -0.2854    0.0430    0.2329 H   0  0  0  0  0  0  0  0  0  0  0  0
    3.0168    2.2426   -1.4040 H   0  0  0  0  0  0  0  0  0  0  0  0
  1  9  1  0  0  0  0
  1  2  2  0  0  0  0
  1 23  1  0  0  0  0
  2  3  1  0  0  0  0
  2 22  1  0  0  0  0
  3  4  2  0  0  0  0
  3  5  1  0  0  0  0
  5  6  1  0  0  0  0
  5  7  1  0  0  0  0
  7  8  2  0  0  0  0
  7  9  1  0  0  0  0
  9 10  1  0  0  0  0
 10 11  1  0  0  0  0
 10 18  1  0  0  0  0
 10 12  1  0  0  0  0
 12 13  1  0  0  0  0
 12 24  1  0  0  0  0
 12 25  1  0  0  0  0
 13 14  1  0  0  0  0
 13 15  1  0  0  0  0
 13 21  1  0  0  0  0
 15 16  1  0  0  0  0
 15 17  1  0  0  0  0
 15 19  1  0  0  0  0
 17 18  1  0  0  0  0
 18 26  1  0  0  0  0
 18 27  1  0  0  0  0
 19 20  1  0  0  0  0
 19 28  1  0  0  0  0
 19 29  1  0  0  0  0
 20 30  1  0  0  0  0
 21 31  1  0  0  0  0
M  END
$$$$
ZINC03834164
  -OEChem-08230709403D

 29 30  0     1  0  0  0  0  0999 V2000
   -0.0877    3.9330    0.0231 C   0  0  0  0  0  0  0  0  0  0  0  0
   -1.2383    3.2265    0.0303 C   0  0  0  0  0  0  0  0  0  0  0  0
   -1.1939    1.8589    0.0178 N   0  0  0  0  0  0  0  0  0  0  0  0
   -0.0144    1.2117    0.0087 C   0  0  0  0  0  0  0  0  0  0  0  0
    0.0021   -0.0041    0.0020 O   0  0  0  0  0  0  0  0  0  0  0  0
    1.1475    1.8910    0.0013 N   0  0  0  0  0  0  0  0  0  0  0  0
    2.0150    1.3937   -0.0093 H   0  0  0  0  0  0  0  0  0  0  0  0
    1.1464    3.2394    0.0081 C   0  0  0  0  0  0  0  0  0  0  0  0
    2.1972    3.8549    0.0017 O   0  0  0  0  0  0  0  0  0  0  0  0
   -2.4423    1.0923    0.0196 C   0  0  1  0  0  0  0  0  0  0  0  0
   -2.2400    0.0313   -0.1270 H   0  0  0  0  0  0  0  0  0  0  0  0
   -3.2219    1.3219    1.3394 C   0  0  2  0  0  0  0  0  0  0  0  0
   -2.8860    0.6332    2.1145 H   0  0  0  0  0  0  0  0  0  0  0  0
   -4.6774    1.0087    0.9150 C   0  0  1  0  0  0  0  0  0  0  0  0
   -5.3685    1.7186    1.3694 H   0  0  0  0  0  0  0  0  0  0  0  0
   -4.6673    1.1712   -0.6174 C   0  0  2  0  0  0  0  0  0  0  0  0
   -4.9069    0.2200   -1.0926 H   0  0  0  0  0  0  0  0  0  0  0  0
   -3.3436    1.5861   -0.9944 O   0  0  0  0  0  0  0  0  0  0  0  0
   -5.6872    2.2326   -1.0347 C   0  0  0  0  0  0  0  0  0  0  0  0
   -5.7544    2.2939   -2.4608 O   0  0  0  0  0  0  0  0  0  0  0  0
   -5.0258   -0.3300    1.2736 O   0  0  0  0  0  0  0  0  0  0  0  0
   -3.0977    2.6770    1.7759 O   0  0  0  0  0  0  0  0  0  0  0  0
   -0.1086    5.0128    0.0284 H   0  0  0  0  0  0  0  0  0  0  0  0
   -2.1893    3.7383    0.0414 H   0  0  0  0  0  0  0  0  0  0  0  0
   -6.6673    1.9714   -0.6357 H   0  0  0  0  0  0  0  0  0  0  0  0
   -5.3824    3.2031   -0.6432 H   0  0  0  0  0  0  0  0  0  0  0  0
   -6.3828    2.9474   -2.7972 H   0  0  0  0  0  0  0  0  0  0  0  0
   -5.9279   -0.5801    1.0310 H   0  0  0  0  0  0  0  0  0  0  0  0
   -3.5685    2.8700    2.5982 H   0  0  0  0  0  0  0  0  0  0  0  0
  1  8  1  0  0  0  0
  1  2  2  0  0  0  0
  1 23  1  0  0  0  0
  2  3  1  0  0  0  0
  2 24  1  0  0  0  0
  3  4  1  0  0  0  0
  3 10  1  0  0  0  0
  4  5  2  0  0  0  0
  4  6  1  0  0  0  0
  6  7  1  0  0  0  0
  6  8  1  0  0  0  0
  8  9  2  0  0  0  0
 10 11  1  0  0  0  0
 10 18  1  0  0  0  0
 10 12  1  0  0  0  0
 12 13  1  0  0  0  0
 12 14  1  0  0  0  0
 12 22  1  0  0  0  0
 14 15  1  0  0  0  0
 14 16  1  0  0  0  0
 14 21  1  0  0  0  0
 16 17  1  0  0  0  0
 16 18  1  0  0  0  0
 16 19  1  0  0  0  0
 19 20  1  0  0  0  0
 19 25  1  0  0  0  0
 19 26  1  0  0  0  0
 20 27  1  0  0  0  0
 21 28  1  0  0  0  0
 22 29  1  0  0  0  0
M  END
$$$$
ZINC03834165
  -OEChem-08230709403D

 29 30  0     1  0  0  0  0  0999 V2000
    0.2309    0.2729   -5.7902 C   0  0  0  0  0  0  0  0  0  0  0  0
    0.5055    1.1139   -4.5702 C   0  0  0  0  0  0  0  0  0  0  0  0
   -0.2650    0.9925   -3.4680 C   0  0  0  0  0  0  0  0  0  0  0  0
   -0.0049    1.7675   -2.3707 N   0  0  0  0  0  0  0  0  0  0  0  0
    1.0177    2.6419   -2.3761 C   0  0  0  0  0  0  0  0  0  0  0  0
    1.2339    3.3173   -1.3885 O   0  0  0  0  0  0  0  0  0  0  0  0
    1.8044    2.7797   -3.4595 N   0  0  0  0  0  0  0  0  0  0  0  0
    2.5599    3.4347   -3.4463 H   0  0  0  0  0  0  0  0  0  0  0  0
    1.5779    2.0381   -4.5626 C   0  0  0  0  0  0  0  0  0  0  0  0
    2.2889    2.1625   -5.5434 O   0  0  0  0  0  0  0  0  0  0  0  0
   -0.8439    1.6396   -1.1766 C   0  0  1  0  0  0  0  0  0  0  0  0
   -1.6945    0.9886   -1.3789 H   0  0  0  0  0  0  0  0  0  0  0  0
   -0.0127    1.0858    0.0080 C   0  0  0  0  0  0  0  0  0  0  0  0
   -0.8230    1.6280    1.2169 C   0  0  2  0  0  0  0  0  0  0  0  0
   -1.6560    0.9661    1.4538 H   0  0  0  0  0  0  0  0  0  0  0  0
   -1.3337    2.9853    0.6861 C   0  0  2  0  0  0  0  0  0  0  0  0
   -2.3560    3.1554    1.0238 H   0  0  0  0  0  0  0  0  0  0  0  0
   -1.2971    2.9325   -0.7448 O   0  0  0  0  0  0  0  0  0  0  0  0
   -0.4619    4.0690    1.1682 C   0  0  0  0  0  0  0  0  0  0  0  0
    0.2334    4.9333    1.5527 C   0  0  0  0  0  0  0  0  0  0  0  0
    0.0222    1.8112    2.3546 O   0  0  0  0  0  0  0  0  0  0  0  0
    0.9575    0.5113   -6.5669 H   0  0  0  0  0  0  0  0  0  0  0  0
    0.3107   -0.7824   -5.5295 H   0  0  0  0  0  0  0  0  0  0  0  0
   -0.7743    0.4816   -6.1566 H   0  0  0  0  0  0  0  0  0  0  0  0
   -1.0852    0.2901   -3.4540 H   0  0  0  0  0  0  0  0  0  0  0  0
    0.0021   -0.0041    0.0020 H   0  0  0  0  0  0  0  0  0  0  0  0
    0.9995    1.4900    0.0005 H   0  0  0  0  0  0  0  0  0  0  0  0
    0.8553    5.7062    1.8966 H   0  0  0  0  0  0  0  0  0  0  0  0
   -0.4373    2.1485    3.1357 H   0  0  0  0  0  0  0  0  0  0  0  0
  1  2  1  0  0  0  0
  1 22  1  0  0  0  0
  1 23  1  0  0  0  0
  1 24  1  0  0  0  0
  2  9  1  0  0  0  0
  2  3  2  0  0  0  0
  3  4  1  0  0  0  0
  3 25  1  0  0  0  0
  4  5  1  0  0  0  0
  4 11  1  0  0  0  0
  5  6  2  0  0  0  0
  5  7  1  0  0  0  0
  7  8  1  0  0  0  0
  7  9  1  0  0  0  0
  9 10  2  0  0  0  0
 11 12  1  0  0  0  0
 11 18  1  0  0  0  0
 11 13  1  0  0  0  0
 13 14  1  0  0  0  0
 13 26  1  0  0  0  0
 13 27  1  0  0  0  0
 14 15  1  0  0  0  0
 14 16  1  0  0  0  0
 14 21  1  0  0  0  0
 16 17  1  0  0  0  0
 16 18  1  0  0  0  0
 16 19  1  0  0  0  0
 19 20  3  0  0  0  0
 20 28  1  0  0  0  0
 21 29  1  0  0  0  0
M  END
$$$$
ZINC03834166
  -OEChem-08230709403D

 35 37  0     1  0  0  0  0  0999 V2000
    2.2281    0.7916   -0.0150 C   0  0  0  0  0  0  0  0  0  0  0  0
    1.3451   -0.2677   -0.0122 C   0  0  0  0  0  0  0  0  0  0  0  0
    0.0021   -0.0041    0.0020 C   0  0  0  0  0  0  0  0  0  0  0  0
   -0.0221    1.7811    0.0118 S   0  0  0  0  0  0  0  0  0  0  0  0
    1.7414    2.0579   -0.0035 C   0  0  0  0  0  0  0  0  0  0  0  0
   -1.1337   -0.9516    0.0074 C   0  0  0  0  0  0  0  0  0  0  0  0
   -1.9746   -1.0265    1.0846 C   0  0  0  0  0  0  0  0  0  0  0  0
   -3.0124   -1.9065    1.0537 N   0  0  0  0  0  0  0  0  0  0  0  0
   -3.2020   -2.6985   -0.0168 C   0  0  0  0  0  0  0  0  0  0  0  0
   -4.1355   -3.4836   -0.0210 O   0  0  0  0  0  0  0  0  0  0  0  0
   -2.3907   -2.6436   -1.0730 N   0  0  0  0  0  0  0  0  0  0  0  0
   -1.3689   -1.8045   -1.1014 C   0  0  0  0  0  0  0  0  0  0  0  0
   -0.5546   -1.7601   -2.1787 O   0  0  0  0  0  0  0  0  0  0  0  0
   -3.9250   -1.9960    2.1962 C   0  0  1  0  0  0  0  0  0  0  0  0
   -3.5736   -1.3644    3.0121 H   0  0  0  0  0  0  0  0  0  0  0  0
   -5.3541   -1.5864    1.7762 C   0  0  0  0  0  0  0  0  0  0  0  0
   -6.2676   -2.5464    2.5741 C   0  0  2  0  0  0  0  0  0  0  0  0
   -6.9195   -1.9857    3.2440 H   0  0  0  0  0  0  0  0  0  0  0  0
   -5.2815   -3.4182    3.3828 C   0  0  2  0  0  0  0  0  0  0  0  0
   -5.1400   -3.0043    4.3812 H   0  0  0  0  0  0  0  0  0  0  0  0
   -4.0458   -3.3660    2.6371 O   0  0  0  0  0  0  0  0  0  0  0  0
   -5.7910   -4.8583    3.4692 C   0  0  0  0  0  0  0  0  0  0  0  0
   -4.8874   -5.6369    4.2561 O   0  0  0  0  0  0  0  0  0  0  0  0
   -7.0412   -3.3570    1.6872 O   0  0  0  0  0  0  0  0  0  0  0  0
    3.2936    0.6153   -0.0261 H   0  0  0  0  0  0  0  0  0  0  0  0
    1.7062   -1.2854   -0.0208 H   0  0  0  0  0  0  0  0  0  0  0  0
    2.2818    2.9930   -0.0042 H   0  0  0  0  0  0  0  0  0  0  0  0
   -1.8189   -0.3934    1.9456 H   0  0  0  0  0  0  0  0  0  0  0  0
   -2.5569   -3.2450   -1.8544 H   0  0  0  0  0  0  0  0  0  0  0  0
   -5.5514   -0.5507    2.0527 H   0  0  0  0  0  0  0  0  0  0  0  0
   -5.4932   -1.7299    0.7047 H   0  0  0  0  0  0  0  0  0  0  0  0
   -6.7774   -4.8675    3.9330 H   0  0  0  0  0  0  0  0  0  0  0  0
   -5.8569   -5.2811    2.4667 H   0  0  0  0  0  0  0  0  0  0  0  0
   -5.1482   -6.5629    4.3536 H   0  0  0  0  0  0  0  0  0  0  0  0
   -7.6773   -2.8604    1.1544 H   0  0  0  0  0  0  0  0  0  0  0  0
  1  5  2  0  0  0  0
  1  2  1  0  0  0  0
  1 25  1  0  0  0  0
  2  3  2  0  0  0  0
  2 26  1  0  0  0  0
  3  4  1  0  0  0  0
  3  6  1  0  0  0  0
  4  5  1  0  0  0  0
  5 27  1  0  0  0  0
  6 12  1  0  0  0  0
  6  7  2  0  0  0  0
  7  8  1  0  0  0  0
  7 28  1  0  0  0  0
  8 14  1  0  0  0  0
  8  9  1  0  0  0  0
  9 10  2  0  0  0  0
  9 11  1  0  0  0  0
 11 29  1  0  0  0  0
 11 12  1  0  0  0  0
 12 13  2  0  0  0  0
 14 15  1  0  0  0  0
 14 21  1  0  0  0  0
 14 16  1  0  0  0  0
 16 17  1  0  0  0  0
 16 30  1  0  0  0  0
 16 31  1  0  0  0  0
 17 18  1  0  0  0  0
 17 19  1  0  0  0  0
 17 24  1  0  0  0  0
 19 20  1  0  0  0  0
 19 21  1  0  0  0  0
 19 22  1  0  0  0  0
 22 23  1  0  0  0  0
 22 32  1  0  0  0  0
 22 33  1  0  0  0  0
 23 34  1  0  0  0  0
 24 35  1  0  0  0  0
M  END
$$$$
ZINC03834167
  -OEChem-08230709403D

 35 37  0     1  0  0  0  0  0999 V2000
   -5.3106   -2.7235   -0.0262 C   0  0  0  0  0  0  0  0  0  0  0  0
   -5.9887   -3.7949    0.5168 C   0  0  0  0  0  0  0  0  0  0  0  0
   -5.3194   -4.9539    0.7442 C   0  0  0  0  0  0  0  0  0  0  0  0
   -3.6749   -4.5541    0.1763 S   0  0  0  0  0  0  0  0  0  0  0  0
   -3.9837   -2.8694   -0.3275 C   0  0  0  0  0  0  0  0  0  0  0  0
   -3.0473   -1.8852   -0.9126 C   0  0  0  0  0  0  0  0  0  0  0  0
   -1.9807   -1.4225   -0.1905 C   0  0  0  0  0  0  0  0  0  0  0  0
   -1.1417   -0.5136   -0.7585 N   0  0  0  0  0  0  0  0  0  0  0  0
   -1.3530   -0.0845   -2.0157 C   0  0  0  0  0  0  0  0  0  0  0  0
   -0.5858    0.7268   -2.5067 O   0  0  0  0  0  0  0  0  0  0  0  0
   -2.3830   -0.5278   -2.7363 N   0  0  0  0  0  0  0  0  0  0  0  0
   -3.2339   -1.4074   -2.2351 C   0  0  0  0  0  0  0  0  0  0  0  0
   -4.2737   -1.8474   -2.9772 O   0  0  0  0  0  0  0  0  0  0  0  0
    0.0021   -0.0041    0.0020 C   0  0  1  0  0  0  0  0  0  0  0  0
   -0.0352   -0.3809    1.0241 H   0  0  0  0  0  0  0  0  0  0  0  0
    1.3184   -0.4407   -0.6698 C   0  0  0  0  0  0  0  0  0  0  0  0
    2.0444    0.8904   -0.9828 C   0  0  2  0  0  0  0  0  0  0  0  0
    3.1108    0.8107   -0.7720 H   0  0  0  0  0  0  0  0  0  0  0  0
    1.3576    1.8735   -0.0008 C   0  0  2  0  0  0  0  0  0  0  0  0
    1.7950    1.7905    0.9941 H   0  0  0  0  0  0  0  0  0  0  0  0
   -0.0174    1.4332    0.0099 O   0  0  0  0  0  0  0  0  0  0  0  0
    1.4593    3.3100   -0.5175 C   0  0  0  0  0  0  0  0  0  0  0  0
    0.8301    4.1958    0.4107 O   0  0  0  0  0  0  0  0  0  0  0  0
    1.8230    1.2855   -2.3381 O   0  0  0  0  0  0  0  0  0  0  0  0
   -5.9633   -6.5748    1.4751 Br  0  0  0  0  0  0  0  0  0  0  0  0
   -5.8178   -1.7885   -0.2128 H   0  0  0  0  0  0  0  0  0  0  0  0
   -7.0373   -3.7115    0.7616 H   0  0  0  0  0  0  0  0  0  0  0  0
   -1.8095   -1.7707    0.8174 H   0  0  0  0  0  0  0  0  0  0  0  0
   -2.5141   -0.1907   -3.6686 H   0  0  0  0  0  0  0  0  0  0  0  0
    1.9124   -1.0477    0.0135 H   0  0  0  0  0  0  0  0  0  0  0  0
    1.1139   -0.9891   -1.5893 H   0  0  0  0  0  0  0  0  0  0  0  0
    2.5088    3.5835   -0.6265 H   0  0  0  0  0  0  0  0  0  0  0  0
    0.9622    3.3843   -1.4847 H   0  0  0  0  0  0  0  0  0  0  0  0
    0.8567    5.1257    0.1469 H   0  0  0  0  0  0  0  0  0  0  0  0
    2.1562    0.6548   -2.9911 H   0  0  0  0  0  0  0  0  0  0  0  0
  1  5  2  0  0  0  0
  1  2  1  0  0  0  0
  1 26  1  0  0  0  0
  2  3  2  0  0  0  0
  2 27  1  0  0  0  0
  3  4  1  0  0  0  0
  3 25  1  0  0  0  0
  4  5  1  0  0  0  0
  5  6  1  0  0  0  0
  6 12  1  0  0  0  0
  6  7  2  0  0  0  0
  7  8  1  0  0  0  0
  7 28  1  0  0  0  0
  8 14  1  0  0  0  0
  8  9  1  0  0  0  0
  9 10  2  0  0  0  0
  9 11  1  0  0  0  0
 11 29  1  0  0  0  0
 11 12  1  0  0  0  0
 12 13  2  0  0  0  0
 14 15  1  0  0  0  0
 14 21  1  0  0  0  0
 14 16  1  0  0  0  0
 16 17  1  0  0  0  0
 16 30  1  0  0  0  0
 16 31  1  0  0  0  0
 17 18  1  0  0  0  0
 17 19  1  0  0  0  0
 17 24  1  0  0  0  0
 19 20  1  0  0  0  0
 19 21  1  0  0  0  0
 19 22  1  0  0  0  0
 22 23  1  0  0  0  0
 22 32  1  0  0  0  0
 22 33  1  0  0  0  0
 23 34  1  0  0  0  0
 24 35  1  0  0  0  0
M  END
$$$$
ZINC03834168
  -OEChem-08230709403D

 35 37  0     1  0  0  0  0  0999 V2000
   -1.1556    1.9018    0.0171 C   0  0  0  0  0  0  0  0  0  0  0  0
   -0.0126    1.0758    0.0080 C   0  0  0  0  0  0  0  0  0  0  0  0
    1.0671    1.9016    0.0021 C   0  0  0  0  0  0  0  0  0  0  0  0
    0.6229    3.1727    0.0127 O   0  0  0  0  0  0  0  0  0  0  0  0
   -0.7211    3.1763    0.0252 C   0  0  0  0  0  0  0  0  0  0  0  0
    2.4833    1.4777   -0.0125 C   0  0  0  0  0  0  0  0  0  0  0  0
    3.2851    1.7594   -1.0860 C   0  0  0  0  0  0  0  0  0  0  0  0
    4.5838    1.3546   -1.0655 N   0  0  0  0  0  0  0  0  0  0  0  0
    5.0725    0.6866   -0.0052 C   0  0  0  0  0  0  0  0  0  0  0  0
    6.2399    0.3334   -0.0084 O   0  0  0  0  0  0  0  0  0  0  0  0
    4.3077    0.4031    1.0491 N   0  0  0  0  0  0  0  0  0  0  0  0
    3.0396    0.7763    1.0881 C   0  0  0  0  0  0  0  0  0  0  0  0
    2.2778    0.4866    2.1657 O   0  0  0  0  0  0  0  0  0  0  0  0
    5.4555    1.6477   -2.2059 C   0  0  1  0  0  0  0  0  0  0  0  0
    4.8746    2.1001   -3.0096 H   0  0  0  0  0  0  0  0  0  0  0  0
    6.5827    2.6045   -1.7714 C   0  0  0  0  0  0  0  0  0  0  0  0
    7.8834    1.8273   -2.0888 C   0  0  2  0  0  0  0  0  0  0  0  0
    8.6371    2.4885   -2.5165 H   0  0  0  0  0  0  0  0  0  0  0  0
    7.3966    0.7933   -3.1358 C   0  0  2  0  0  0  0  0  0  0  0  0
    7.3447    1.2453   -4.1263 H   0  0  0  0  0  0  0  0  0  0  0  0
    6.0745    0.4370   -2.6719 O   0  0  0  0  0  0  0  0  0  0  0  0
    8.3145   -0.4307   -3.1514 C   0  0  0  0  0  0  0  0  0  0  0  0
    7.9138   -1.3132   -4.2015 O   0  0  0  0  0  0  0  0  0  0  0  0
    8.3846    1.1734   -0.9212 O   0  0  0  0  0  0  0  0  0  0  0  0
   -2.1847    1.5741    0.0198 H   0  0  0  0  0  0  0  0  0  0  0  0
    0.0021   -0.0041    0.0020 H   0  0  0  0  0  0  0  0  0  0  0  0
   -1.3483    4.0555    0.0349 H   0  0  0  0  0  0  0  0  0  0  0  0
    2.8921    2.2957   -1.9371 H   0  0  0  0  0  0  0  0  0  0  0  0
    4.6981   -0.0986    1.8210 H   0  0  0  0  0  0  0  0  0  0  0  0
    6.5409    3.5294   -2.3467 H   0  0  0  0  0  0  0  0  0  0  0  0
    6.5132    2.8164   -0.7045 H   0  0  0  0  0  0  0  0  0  0  0  0
    9.3432   -0.1113   -3.3179 H   0  0  0  0  0  0  0  0  0  0  0  0
    8.2452   -0.9490   -2.1950 H   0  0  0  0  0  0  0  0  0  0  0  0
    8.4532   -2.1128   -4.2706 H   0  0  0  0  0  0  0  0  0  0  0  0
    8.6181    1.7766   -0.2023 H   0  0  0  0  0  0  0  0  0  0  0  0
  1  5  2  0  0  0  0
  1  2  1  0  0  0  0
  1 25  1  0  0  0  0
  2  3  2  0  0  0  0
  2 26  1  0  0  0  0
  3  4  1  0  0  0  0
  3  6  1  0  0  0  0
  4  5  1  0  0  0  0
  5 27  1  0  0  0  0
  6 12  1  0  0  0  0
  6  7  2  0  0  0  0
  7  8  1  0  0  0  0
  7 28  1  0  0  0  0
  8 14  1  0  0  0  0
  8  9  1  0  0  0  0
  9 10  2  0  0  0  0
  9 11  1  0  0  0  0
 11 29  1  0  0  0  0
 11 12  1  0  0  0  0
 12 13  2  0  0  0  0
 14 15  1  0  0  0  0
 14 21  1  0  0  0  0
 14 16  1  0  0  0  0
 16 17  1  0  0  0  0
 16 30  1  0  0  0  0
 16 31  1  0  0  0  0
 17 18  1  0  0  0  0
 17 19  1  0  0  0  0
 17 24  1  0  0  0  0
 19 20  1  0  0  0  0
 19 21  1  0  0  0  0
 19 22  1  0  0  0  0
 22 23  1  0  0  0  0
 22 32  1  0  0  0  0
 22 33  1  0  0  0  0
 23 34  1  0  0  0  0
 24 35  1  0  0  0  0
M  END
$$$$
ZINC03834169
  -OEChem-08230709403D

 36 38  0     1  0  0  0  0  0999 V2000
   -5.3104   -2.7229   -0.0219 C   0  0  0  0  0  0  0  0  0  0  0  0
   -5.9886   -3.7945    0.5204 C   0  0  0  0  0  0  0  0  0  0  0  0
   -5.3193   -4.9536    0.7477 C   0  0  0  0  0  0  0  0  0  0  0  0
   -3.6749   -4.5539    0.1796 S   0  0  0  0  0  0  0  0  0  0  0  0
   -3.9837   -2.8692   -0.3242 C   0  0  0  0  0  0  0  0  0  0  0  0
   -3.0475   -1.8854   -0.9099 C   0  0  0  0  0  0  0  0  0  0  0  0
   -1.9811   -1.4231   -0.1895 C   0  0  0  0  0  0  0  0  0  0  0  0
   -1.1417   -0.5136   -0.7585 N   0  0  0  0  0  0  0  0  0  0  0  0
   -1.3525   -0.0842   -2.0156 C   0  0  0  0  0  0  0  0  0  0  0  0
   -0.5844    0.7266   -2.5062 O   0  0  0  0  0  0  0  0  0  0  0  0
   -2.3820   -0.5258   -2.7363 N   0  0  0  0  0  0  0  0  0  0  0  0
   -3.2350   -1.4067   -2.2346 C   0  0  0  0  0  0  0  0  0  0  0  0
   -4.2932   -1.8535   -2.9893 N   0  0  0  0  0  0  0  0  0  0  0  0
    0.0021   -0.0041    0.0020 C   0  0  1  0  0  0  0  0  0  0  0  0
   -0.0352   -0.3809    1.0241 H   0  0  0  0  0  0  0  0  0  0  0  0
    1.3184   -0.4407   -0.6698 C   0  0  0  0  0  0  0  0  0  0  0  0
    2.0444    0.8904   -0.9828 C   0  0  2  0  0  0  0  0  0  0  0  0
    3.1108    0.8107   -0.7720 H   0  0  0  0  0  0  0  0  0  0  0  0
    1.3576    1.8735   -0.0008 C   0  0  2  0  0  0  0  0  0  0  0  0
    1.7950    1.7905    0.9941 H   0  0  0  0  0  0  0  0  0  0  0  0
   -0.0174    1.4332    0.0099 O   0  0  0  0  0  0  0  0  0  0  0  0
    1.4593    3.3100   -0.5175 C   0  0  0  0  0  0  0  0  0  0  0  0
    0.8301    4.1958    0.4107 O   0  0  0  0  0  0  0  0  0  0  0  0
    1.8230    1.2855   -2.3381 O   0  0  0  0  0  0  0  0  0  0  0  0
   -5.9633   -6.5743    1.4787 Br  0  0  0  0  0  0  0  0  0  0  0  0
   -5.8173   -1.7875   -0.2077 H   0  0  0  0  0  0  0  0  0  0  0  0
   -7.0372   -3.7111    0.7653 H   0  0  0  0  0  0  0  0  0  0  0  0
   -1.8090   -1.7714    0.8182 H   0  0  0  0  0  0  0  0  0  0  0  0
   -4.8716   -1.0786   -3.2440 H   0  0  0  0  0  0  0  0  0  0  0  0
   -4.9155   -2.4984   -2.6182 H   0  0  0  0  0  0  0  0  0  0  0  0
    1.9124   -1.0477    0.0135 H   0  0  0  0  0  0  0  0  0  0  0  0
    1.1139   -0.9891   -1.5893 H   0  0  0  0  0  0  0  0  0  0  0  0
    2.5088    3.5835   -0.6265 H   0  0  0  0  0  0  0  0  0  0  0  0
    0.9622    3.3843   -1.4847 H   0  0  0  0  0  0  0  0  0  0  0  0
    0.8567    5.1257    0.1469 H   0  0  0  0  0  0  0  0  0  0  0  0
    2.1562    0.6548   -2.9911 H   0  0  0  0  0  0  0  0  0  0  0  0
  1  5  2  0  0  0  0
  1  2  1  0  0  0  0
  1 26  1  0  0  0  0
  2  3  2  0  0  0  0
  2 27  1  0  0  0  0
  3  4  1  0  0  0  0
  3 25  1  0  0  0  0
  4  5  1  0  0  0  0
  5  6  1  0  0  0  0
  6 12  1  0  0  0  0
  6  7  2  0  0  0  0
  7  8  1  0  0  0  0
  7 28  1  0  0  0  0
  8  9  1  0  0  0  0
  8 14  1  0  0  0  0
  9 10  2  0  0  0  0
  9 11  1  0  0  0  0
 11 12  2  0  0  0  0
 12 13  1  0  0  0  0
 13 29  1  0  0  0  0
 13 30  1  0  0  0  0
 14 15  1  0  0  0  0
 14 21  1  0  0  0  0
 14 16  1  0  0  0  0
 16 17  1  0  0  0  0
 16 31  1  0  0  0  0
 16 32  1  0  0  0  0
 17 18  1  0  0  0  0
 17 19  1  0  0  0  0
 17 24  1  0  0  0  0
 19 20  1  0  0  0  0
 19 21  1  0  0  0  0
 19 22  1  0  0  0  0
 22 23  1  0  0  0  0
 22 33  1  0  0  0  0
 22 34  1  0  0  0  0
 23 35  1  0  0  0  0
 24 36  1  0  0  0  0
M  END
$$$$
ZINC03834170
  -OEChem-08230709403D

 36 38  0     1  0  0  0  0  0999 V2000
    5.8376    6.0828   -3.2442 C   0  0  0  0  0  0  0  0  0  0  0  0
    7.1110    6.0690   -3.7739 C   0  0  0  0  0  0  0  0  0  0  0  0
    7.9928    5.1278   -3.3498 C   0  0  0  0  0  0  0  0  0  0  0  0
    7.0253    4.2191   -2.1561 S   0  0  0  0  0  0  0  0  0  0  0  0
    5.5054    5.1438   -2.3058 C   0  0  0  0  0  0  0  0  0  0  0  0
    4.2227    4.9495   -1.5954 C   0  0  0  0  0  0  0  0  0  0  0  0
    3.4833    3.8141   -1.7888 C   0  0  0  0  0  0  0  0  0  0  0  0
    2.3073    3.6685   -1.1190 N   0  0  0  0  0  0  0  0  0  0  0  0
    1.8761    4.6301   -0.2831 C   0  0  0  0  0  0  0  0  0  0  0  0
    0.8167    4.4812    0.3028 O   0  0  0  0  0  0  0  0  0  0  0  0
    2.5851    5.7400   -0.0778 N   0  0  0  0  0  0  0  0  0  0  0  0
    3.7349    5.9364   -0.7009 C   0  0  0  0  0  0  0  0  0  0  0  0
    4.4398    7.0692   -0.4874 O   0  0  0  0  0  0  0  0  0  0  0  0
    1.5033    2.4595   -1.3143 C   0  0  1  0  0  0  0  0  0  0  0  0
    1.9237    1.8502   -2.1143 H   0  0  0  0  0  0  0  0  0  0  0  0
    1.4269    1.6468   -0.0027 C   0  0  1  0  0  0  0  0  0  0  0  0
    1.5914    2.2930    0.8595 H   0  0  0  0  0  0  0  0  0  0  0  0
   -0.0127    1.0858    0.0080 C   0  0  2  0  0  0  0  0  0  0  0  0
    0.0021   -0.0041    0.0020 H   0  0  0  0  0  0  0  0  0  0  0  0
   -0.6358    1.6259   -1.2983 C   0  0  2  0  0  0  0  0  0  0  0  0
   -0.5434    0.8887   -2.0959 H   0  0  0  0  0  0  0  0  0  0  0  0
    0.1337    2.8067   -1.6135 O   0  0  0  0  0  0  0  0  0  0  0  0
   -2.1049    1.9910   -1.0765 C   0  0  0  0  0  0  0  0  0  0  0  0
   -2.6928    2.3773   -2.3203 O   0  0  0  0  0  0  0  0  0  0  0  0
   -0.7301    1.5693    1.1454 O   0  0  0  0  0  0  0  0  0  0  0  0
    2.3793    0.5816   -0.0175 O   0  0  0  0  0  0  0  0  0  0  0  0
    9.7868    4.8543   -3.8817 Br  0  0  0  0  0  0  0  0  0  0  0  0
    5.1166    6.8207   -3.5636 H   0  0  0  0  0  0  0  0  0  0  0  0
    7.4029    6.7974   -4.5159 H   0  0  0  0  0  0  0  0  0  0  0  0
    3.8279    3.0447   -2.4637 H   0  0  0  0  0  0  0  0  0  0  0  0
    2.2429    6.4336    0.5560 H   0  0  0  0  0  0  0  0  0  0  0  0
   -2.6371    1.1285   -0.6754 H   0  0  0  0  0  0  0  0  0  0  0  0
   -2.1709    2.8191   -0.3707 H   0  0  0  0  0  0  0  0  0  0  0  0
   -3.6259    2.6228   -2.2550 H   0  0  0  0  0  0  0  0  0  0  0  0
   -1.6491    1.2715    1.1865 H   0  0  0  0  0  0  0  0  0  0  0  0
    2.3342    0.0029    0.7558 H   0  0  0  0  0  0  0  0  0  0  0  0
  1  5  2  0  0  0  0
  1  2  1  0  0  0  0
  1 28  1  0  0  0  0
  2  3  2  0  0  0  0
  2 29  1  0  0  0  0
  3  4  1  0  0  0  0
  3 27  1  0  0  0  0
  4  5  1  0  0  0  0
  5  6  1  0  0  0  0
  6 12  1  0  0  0  0
  6  7  2  0  0  0  0
  7  8  1  0  0  0  0
  7 30  1  0  0  0  0
  8 14  1  0  0  0  0
  8  9  1  0  0  0  0
  9 10  2  0  0  0  0
  9 11  1  0  0  0  0
 11 31  1  0  0  0  0
 11 12  1  0  0  0  0
 12 13  2  0  0  0  0
 14 15  1  0  0  0  0
 14 22  1  0  0  0  0
 14 16  1  0  0  0  0
 16 17  1  0  0  0  0
 16 18  1  0  0  0  0
 16 26  1  0  0  0  0
 18 19  1  0  0  0  0
 18 20  1  0  0  0  0
 18 25  1  0  0  0  0
 20 21  1  0  0  0  0
 20 22  1  0  0  0  0
 20 23  1  0  0  0  0
 23 24  1  0  0  0  0
 23 32  1  0  0  0  0
 23 33  1  0  0  0  0
 24 34  1  0  0  0  0
 25 35  1  0  0  0  0
 26 36  1  0  0  0  0
M  END
$$$$
ZINC03834171
  -OEChem-08230709403D

 27 28  0     1  0  0  0  0  0999 V2000
   -1.2162    2.1227    0.0194 C   0  0  0  0  0  0  0  0  0  0  0  0
   -1.2340    3.4731    0.0320 C   0  0  0  0  0  0  0  0  0  0  0  0
   -0.0057    4.1783    0.0241 C   0  0  0  0  0  0  0  0  0  0  0  0
    0.0038    5.3961    0.0302 O   0  0  0  0  0  0  0  0  0  0  0  0
    1.1530    3.4889    0.0093 N   0  0  0  0  0  0  0  0  0  0  0  0
    2.0243    3.9796    0.0032 H   0  0  0  0  0  0  0  0  0  0  0  0
    1.1418    2.1430    0.0027 C   0  0  0  0  0  0  0  0  0  0  0  0
    2.1947    1.5350   -0.0098 O   0  0  0  0  0  0  0  0  0  0  0  0
   -0.0178    1.4608    0.0101 N   0  0  0  0  0  0  0  0  0  0  0  0
    0.0021   -0.0041    0.0020 C   0  0  1  0  0  0  0  0  0  0  0  0
    1.0168   -0.3722   -0.1496 H   0  0  0  0  0  0  0  0  0  0  0  0
   -0.5910   -0.5652    1.3195 C   0  0  0  0  0  0  0  0  0  0  0  0
   -1.0676   -1.9731    0.8868 C   0  0  1  0  0  0  0  0  0  0  0  0
   -2.0301   -2.2067    1.3420 H   0  0  0  0  0  0  0  0  0  0  0  0
   -1.2058   -1.8710   -0.6446 C   0  0  2  0  0  0  0  0  0  0  0  0
   -0.5124   -2.5605   -1.1261 H   0  0  0  0  0  0  0  0  0  0  0  0
   -0.8859   -0.5190   -1.0133 O   0  0  0  0  0  0  0  0  0  0  0  0
   -2.6406   -2.2014   -1.0606 C   0  0  0  0  0  0  0  0  0  0  0  0
   -2.7312   -2.2182   -2.4866 O   0  0  0  0  0  0  0  0  0  0  0  0
   -0.1153   -2.9392    1.2292 F   0  0  0  0  0  0  0  0  0  0  0  0
   -2.8767    4.4096    0.0527 Br  0  0  0  0  0  0  0  0  0  0  0  0
   -2.1427    1.5677    0.0211 H   0  0  0  0  0  0  0  0  0  0  0  0
    0.1746   -0.6342    2.0923 H   0  0  0  0  0  0  0  0  0  0  0  0
   -1.4297    0.0428    1.6586 H   0  0  0  0  0  0  0  0  0  0  0  0
   -2.9168   -3.1798   -0.6674 H   0  0  0  0  0  0  0  0  0  0  0  0
   -3.3176   -1.4456   -0.6624 H   0  0  0  0  0  0  0  0  0  0  0  0
   -3.6150   -2.4215   -2.8222 H   0  0  0  0  0  0  0  0  0  0  0  0
  1  9  1  0  0  0  0
  1  2  2  0  0  0  0
  1 22  1  0  0  0  0
  2  3  1  0  0  0  0
  2 21  1  0  0  0  0
  3  4  2  0  0  0  0
  3  5  1  0  0  0  0
  5  6  1  0  0  0  0
  5  7  1  0  0  0  0
  7  8  2  0  0  0  0
  7  9  1  0  0  0  0
  9 10  1  0  0  0  0
 10 11  1  0  0  0  0
 10 17  1  0  0  0  0
 10 12  1  0  0  0  0
 12 13  1  0  0  0  0
 12 23  1  0  0  0  0
 12 24  1  0  0  0  0
 13 14  1  0  0  0  0
 13 15  1  0  0  0  0
 13 20  1  0  0  0  0
 15 16  1  0  0  0  0
 15 17  1  0  0  0  0
 15 18  1  0  0  0  0
 18 19  1  0  0  0  0
 18 25  1  0  0  0  0
 18 26  1  0  0  0  0
 19 27  1  0  0  0  0
M  END
$$$$
ZINC03834172
  -OEChem-08230709403D

 37 38  0     1  0  0  0  0  0999 V2000
   -1.7628    0.3882   -2.8087 C   0  0  0  0  0  0  0  0  0  0  0  0
   -0.5491    1.2536   -3.0305 C   0  0  0  0  0  0  0  0  0  0  0  0
   -0.0165    1.9594   -2.0101 C   0  0  0  0  0  0  0  0  0  0  0  0
    1.0826    2.7443   -2.2300 N   0  0  0  0  0  0  0  0  0  0  0  0
    1.4721    3.2736   -1.4763 H   0  0  0  0  0  0  0  0  0  0  0  0
    1.6441    2.8105   -3.4509 C   0  0  0  0  0  0  0  0  0  0  0  0
    2.6234    3.5103   -3.6230 O   0  0  0  0  0  0  0  0  0  0  0  0
    1.1337    2.1175   -4.4857 N   0  0  0  0  0  0  0  0  0  0  0  0
    1.5613    2.1817   -5.3874 H   0  0  0  0  0  0  0  0  0  0  0  0
    0.0481    1.3370   -4.3114 C   0  0  0  0  0  0  0  0  0  0  0  0
   -0.4146    0.7099   -5.2472 O   0  0  0  0  0  0  0  0  0  0  0  0
   -0.6332    1.8879   -0.6369 C   0  0  0  0  0  0  0  0  0  0  0  0
    0.0508    0.7843    0.1725 C   0  0  2  0  0  0  0  0  0  0  0  0
   -0.6777    0.6001    1.5058 C   0  0  1  0  0  0  0  0  0  0  0  0
   -1.6302    0.0991    1.3330 H   0  0  0  0  0  0  0  0  0  0  0  0
    0.1447   -0.2120    2.4044 N   0  0  0  0  0  0  0  0  0  0  0  0
    1.4829   -0.0998    2.4057 C   0  0  0  0  0  0  0  0  0  0  0  0
    2.1286   -0.7111    3.2343 O   0  0  0  0  0  0  0  0  0  0  0  0
    2.1251    0.6716    1.5128 N   0  0  0  0  0  0  0  0  0  0  0  0
    1.4839    1.1701    0.4400 C   0  0  0  0  0  0  0  0  0  0  0  0
    2.0581    1.9288   -0.3114 O   0  0  0  0  0  0  0  0  0  0  0  0
   -0.9297    1.9684    2.1423 C   0  0  0  0  0  0  0  0  0  0  0  0
   -1.7108    1.8057    3.3278 O   0  0  0  0  0  0  0  0  0  0  0  0
    0.0128   -0.5263   -0.6160 C   0  0  0  0  0  0  0  0  0  0  0  0
   -2.6594    0.9413   -3.0882 H   0  0  0  0  0  0  0  0  0  0  0  0
   -1.6849   -0.5106   -3.4205 H   0  0  0  0  0  0  0  0  0  0  0  0
   -1.8219    0.1078   -1.7571 H   0  0  0  0  0  0  0  0  0  0  0  0
   -1.6966    1.6663   -0.7273 H   0  0  0  0  0  0  0  0  0  0  0  0
   -0.5032    2.8440   -0.1300 H   0  0  0  0  0  0  0  0  0  0  0  0
   -0.2831   -0.8398    3.0076 H   0  0  0  0  0  0  0  0  0  0  0  0
    3.0652    0.8720    1.6433 H   0  0  0  0  0  0  0  0  0  0  0  0
    0.0236    2.4321    2.3961 H   0  0  0  0  0  0  0  0  0  0  0  0
   -1.4665    2.6036    1.4378 H   0  0  0  0  0  0  0  0  0  0  0  0
   -1.9094    2.6344    3.7848 H   0  0  0  0  0  0  0  0  0  0  0  0
    0.6228   -1.2735   -0.1084 H   0  0  0  0  0  0  0  0  0  0  0  0
   -1.0157   -0.8809   -0.6822 H   0  0  0  0  0  0  0  0  0  0  0  0
    0.4045   -0.3581   -1.6193 H   0  0  0  0  0  0  0  0  0  0  0  0
  1  2  1  0  0  0  0
  1 25  1  0  0  0  0
  1 26  1  0  0  0  0
  1 27  1  0  0  0  0
  2 10  1  0  0  0  0
  2  3  2  0  0  0  0
  3  4  1  0  0  0  0
  3 12  1  0  0  0  0
  4  5  1  0  0  0  0
  4  6  1  0  0  0  0
  6  7  2  0  0  0  0
  6  8  1  0  0  0  0
  8  9  1  0  0  0  0
  8 10  1  0  0  0  0
 10 11  2  0  0  0  0
 12 13  1  0  0  0  0
 12 28  1  0  0  0  0
 12 29  1  0  0  0  0
 13 20  1  0  0  0  0
 13 14  1  0  0  0  0
 13 24  1  0  0  0  0
 14 15  1  0  0  0  0
 14 16  1  0  0  0  0
 14 22  1  0  0  0  0
 16 17  1  0  0  0  0
 16 30  1  0  0  0  0
 17 18  2  0  0  0  0
 17 19  1  0  0  0  0
 19 20  1  0  0  0  0
 19 31  1  0  0  0  0
 20 21  2  0  0  0  0
 22 23  1  0  0  0  0
 22 32  1  0  0  0  0
 22 33  1  0  0  0  0
 23 34  1  0  0  0  0
 24 35  1  0  0  0  0
 24 36  1  0  0  0  0
 24 37  1  0  0  0  0
M  END
$$$$
ZINC03834173
  -OEChem-08230709403D

 28 29  0     1  0  0  0  0  0999 V2000
    2.2901    3.9085    1.4315 C   0  0  0  0  0  0  0  0  0  0  0  0
    3.1110    4.9454    1.7046 C   0  0  0  0  0  0  0  0  0  0  0  0
    4.4174    4.6821    2.1838 C   0  0  0  0  0  0  0  0  0  0  0  0
    5.1775    5.6005    2.4323 O   0  0  0  0  0  0  0  0  0  0  0  0
    4.8119    3.4051    2.3619 N   0  0  0  0  0  0  0  0  0  0  0  0
    5.7328    3.2110    2.6998 H   0  0  0  0  0  0  0  0  0  0  0  0
    3.9713    2.3906    2.0867 C   0  0  0  0  0  0  0  0  0  0  0  0
    4.3412    1.2442    2.2519 O   0  0  0  0  0  0  0  0  0  0  0  0
    2.7277    2.6269    1.6309 N   0  0  0  0  0  0  0  0  0  0  0  0
    1.8356    1.5020    1.3396 C   0  0  1  0  0  0  0  0  0  0  0  0
    2.3746    0.5618    1.4567 H   0  0  0  0  0  0  0  0  0  0  0  0
    0.6221    1.5320    2.2889 C   0  0  0  0  0  0  0  0  0  0  0  0
   -0.5991    1.6164    1.3411 C   0  0  1  0  0  0  0  0  0  0  0  0
   -0.9379    2.6468    1.2341 H   0  0  0  0  0  0  0  0  0  0  0  0
   -0.0127    1.0858    0.0080 C   0  0  2  0  0  0  0  0  0  0  0  0
    0.0021   -0.0041    0.0020 H   0  0  0  0  0  0  0  0  0  0  0  0
    1.3315    1.6126   -0.0020 O   0  0  0  0  0  0  0  0  0  0  0  0
   -0.8091    1.6187   -1.1847 C   0  0  0  0  0  0  0  0  0  0  0  0
   -0.2860    1.0635   -2.3931 O   0  0  0  0  0  0  0  0  0  0  0  0
   -1.6605    0.7775    1.8010 O   0  0  0  0  0  0  0  0  0  0  0  0
    2.4635    6.9168    1.4157 I   0  0  0  0  0  0  0  0  0  0  0  0
    1.2917    4.0896    1.0615 H   0  0  0  0  0  0  0  0  0  0  0  0
    0.5807    0.6198    2.8841 H   0  0  0  0  0  0  0  0  0  0  0  0
    0.6660    2.4075    2.9367 H   0  0  0  0  0  0  0  0  0  0  0  0
   -1.8562    1.3355   -1.0782 H   0  0  0  0  0  0  0  0  0  0  0  0
   -0.7283    2.7052   -1.2193 H   0  0  0  0  0  0  0  0  0  0  0  0
   -0.7441    1.3584   -3.1920 H   0  0  0  0  0  0  0  0  0  0  0  0
   -2.0598    1.0684    2.6323 H   0  0  0  0  0  0  0  0  0  0  0  0
  1  9  1  0  0  0  0
  1  2  2  0  0  0  0
  1 22  1  0  0  0  0
  2  3  1  0  0  0  0
  2 21  1  0  0  0  0
  3  4  2  0  0  0  0
  3  5  1  0  0  0  0
  5  6  1  0  0  0  0
  5  7  1  0  0  0  0
  7  8  2  0  0  0  0
  7  9  1  0  0  0  0
  9 10  1  0  0  0  0
 10 11  1  0  0  0  0
 10 17  1  0  0  0  0
 10 12  1  0  0  0  0
 12 13  1  0  0  0  0
 12 23  1  0  0  0  0
 12 24  1  0  0  0  0
 13 14  1  0  0  0  0
 13 15  1  0  0  0  0
 13 20  1  0  0  0  0
 15 16  1  0  0  0  0
 15 17  1  0  0  0  0
 15 18  1  0  0  0  0
 18 19  1  0  0  0  0
 18 25  1  0  0  0  0
 18 26  1  0  0  0  0
 19 27  1  0  0  0  0
 20 28  1  0  0  0  0
M  END
$$$$
ZINC03834174
  -OEChem-08230709403D

 34 36  0     1  0  0  0  0  0999 V2000
    4.8664    6.4095    0.7779 C   0  0  0  0  0  0  0  0  0  0  0  0
    4.2341    5.1311    1.2647 C   0  0  0  0  0  0  0  0  0  0  0  0
    3.0727    4.6958    0.7311 C   0  0  0  0  0  0  0  0  0  0  0  0
    2.5125    3.5327    1.1846 N   0  0  0  0  0  0  0  0  0  0  0  0
    3.1054    2.8214    2.1606 C   0  0  0  0  0  0  0  0  0  0  0  0
    2.5880    1.7931    2.5518 O   0  0  0  0  0  0  0  0  0  0  0  0
    4.2661    3.2295    2.7065 N   0  0  0  0  0  0  0  0  0  0  0  0
    4.6969    2.6845    3.4258 H   0  0  0  0  0  0  0  0  0  0  0  0
    4.8502    4.3702    2.2874 C   0  0  0  0  0  0  0  0  0  0  0  0
    5.8978    4.7428    2.7842 O   0  0  0  0  0  0  0  0  0  0  0  0
    1.2521    3.0606    0.6061 C   0  0  1  0  0  0  0  0  0  0  0  0
    0.8929    3.7590   -0.1498 H   0  0  0  0  0  0  0  0  0  0  0  0
    1.4307    1.6476   -0.0028 C   0  0  0  0  0  0  0  0  0  0  0  0
   -0.0127    1.0858    0.0080 C   0  0  1  0  0  0  0  0  0  0  0  0
    0.0021   -0.0041    0.0020 H   0  0  0  0  0  0  0  0  0  0  0  0
   -0.6130    1.6104    1.3287 C   0  0  1  0  0  0  0  0  0  0  0  0
    0.1912    2.8660    1.7090 C   0  0  2  0  0  0  0  0  0  0  0  0
    0.4915    3.0723    2.7362 H   0  0  0  0  0  0  0  0  0  0  0  0
   -1.2843    2.9852    1.3220 C   0  0  0  0  0  0  0  0  0  0  0  0
   -1.0148    0.5743    2.3804 C   0  0  0  0  0  0  0  0  0  0  0  0
   -1.7310   -0.4901    1.7510 O   0  0  0  0  0  0  0  0  0  0  0  0
   -0.7504    1.5809   -1.1112 O   0  0  0  0  0  0  0  0  0  0  0  0
    4.4950    7.2466    1.3690 H   0  0  0  0  0  0  0  0  0  0  0  0
    5.9492    6.3424    0.8831 H   0  0  0  0  0  0  0  0  0  0  0  0
    4.6121    6.5642   -0.2707 H   0  0  0  0  0  0  0  0  0  0  0  0
    2.5883    5.2628   -0.0501 H   0  0  0  0  0  0  0  0  0  0  0  0
    2.0867    1.0390    0.6196 H   0  0  0  0  0  0  0  0  0  0  0  0
    1.8128    1.7114   -1.0216 H   0  0  0  0  0  0  0  0  0  0  0  0
   -1.9969    3.2005    2.1182 H   0  0  0  0  0  0  0  0  0  0  0  0
   -1.5156    3.4269    0.3527 H   0  0  0  0  0  0  0  0  0  0  0  0
   -0.1200    0.1768    2.8593 H   0  0  0  0  0  0  0  0  0  0  0  0
   -1.6497    1.0456    3.1307 H   0  0  0  0  0  0  0  0  0  0  0  0
   -2.0177   -1.1850    2.3594 H   0  0  0  0  0  0  0  0  0  0  0  0
   -0.3974    1.3051   -1.9681 H   0  0  0  0  0  0  0  0  0  0  0  0
  1  2  1  0  0  0  0
  1 23  1  0  0  0  0
  1 24  1  0  0  0  0
  1 25  1  0  0  0  0
  2  9  1  0  0  0  0
  2  3  2  0  0  0  0
  3  4  1  0  0  0  0
  3 26  1  0  0  0  0
  4  5  1  0  0  0  0
  4 11  1  0  0  0  0
  5  6  2  0  0  0  0
  5  7  1  0  0  0  0
  7  8  1  0  0  0  0
  7  9  1  0  0  0  0
  9 10  2  0  0  0  0
 11 12  1  0  0  0  0
 11 17  1  0  0  0  0
 11 13  1  0  0  0  0
 13 14  1  0  0  0  0
 13 27  1  0  0  0  0
 13 28  1  0  0  0  0
 14 15  1  0  0  0  0
 14 16  1  0  0  0  0
 14 22  1  0  0  0  0
 16 19  1  0  0  0  0
 16 17  1  0  0  0  0
 16 20  1  0  0  0  0
 17 18  1  0  0  0  0
 17 19  1  0  0  0  0
 19 29  1  0  0  0  0
 19 30  1  0  0  0  0
 20 21  1  0  0  0  0
 20 31  1  0  0  0  0
 20 32  1  0  0  0  0
 21 33  1  0  0  0  0
 22 34  1  0  0  0  0
M  END
$$$$
