ZINC02043468
  -OEChem-08230709403D

 62 65  0     1  0  0  0  0  0999 V2000
    3.6533   12.6563   -0.1343 H   0  0  0  0  0  0  0  0  0  0  0  0
    1.6433   12.9766   -0.0902 C   0  0  0  0  0  0  0  0  0  0  0  0
    0.3562   12.4671   -0.6159 C   0  0  0  0  0  0  0  0  0  0  0  0
   -0.8410   13.0867   -0.2578 C   0  0  0  0  0  0  0  0  0  0  0  0
   -2.0370   12.6077   -0.7512 C   0  0  0  0  0  0  0  0  0  0  0  0
   -2.0500   11.5184   -1.6044 C   0  0  0  0  0  0  0  0  0  0  0  0
   -0.8666   10.8962   -1.9586 C   0  0  0  0  0  0  0  0  0  0  0  0
    0.3362   11.3661   -1.4715 C   0  0  0  0  0  0  0  0  0  0  0  0
   -0.8900    9.7065   -2.8834 C   0  0  0  0  0  0  0  0  0  0  0  0
   -1.0140    8.4229   -2.0600 C   0  0  1  0  0  0  0  0  0  0  0  0
   -1.9173    8.4673   -1.4518 H   0  0  0  0  0  0  0  0  0  0  0  0
   -1.0901    7.2371   -2.9868 C   0  0  0  0  0  0  0  0  0  0  0  0
   -0.1180    6.5299   -3.1480 O   0  0  0  0  0  0  0  0  0  0  0  0
   -2.2383    6.9622   -3.6367 N   0  0  0  0  0  0  0  0  0  0  0  0
   -3.3925    7.8694   -3.5465 C   0  0  0  0  0  0  0  0  0  0  0  0
   -4.6274    7.0569   -3.1601 C   0  0  0  0  0  0  0  0  0  0  0  0
   -3.6496    5.0123   -4.0232 C   0  0  0  0  0  0  0  0  0  0  0  0
   -2.3727    5.7441   -4.4498 C   0  0  0  0  0  0  0  0  0  0  0  0
    0.1556    8.2871   -1.1883 N   0  0  0  0  0  0  0  0  0  0  0  0
   -0.0079    7.6204    0.3187 S   0  0  0  0  0  0  0  0  0  0  0  0
   -1.1088    8.2744    0.9349 O   0  0  0  0  0  0  0  0  0  0  0  0
    1.2894    7.6031    0.8982 O   0  0  0  0  0  0  0  0  0  0  0  0
   -0.4823    5.9382    0.0955 C   0  0  0  0  0  0  0  0  0  0  0  0
    0.5009    4.9559   -0.0094 C   0  0  0  0  0  0  0  0  0  0  0  0
    0.1686    3.6475   -0.1823 C   0  0  0  0  0  0  0  0  0  0  0  0
   -1.1853    3.2779   -0.2565 C   0  0  0  0  0  0  0  0  0  0  0  0
   -1.5672    1.9372   -0.4350 C   0  0  0  0  0  0  0  0  0  0  0  0
   -2.8881    1.6167   -0.5029 C   0  0  0  0  0  0  0  0  0  0  0  0
   -3.8711    2.5997   -0.4034 C   0  0  0  0  0  0  0  0  0  0  0  0
   -3.5389    3.9073   -0.2244 C   0  0  0  0  0  0  0  0  0  0  0  0
   -2.1849    4.2768   -0.1500 C   0  0  0  0  0  0  0  0  0  0  0  0
   -1.8031    5.6176    0.0276 C   0  0  0  0  0  0  0  0  0  0  0  0
    1.6599   14.0646    0.7551 N   0  0  0  0  0  0  0  0  0  0  0  0
   -0.8317   13.9400    0.4042 H   0  0  0  0  0  0  0  0  0  0  0  0
   -2.9647   13.0864   -0.4744 H   0  0  0  0  0  0  0  0  0  0  0  0
   -2.9884   11.1497   -1.9916 H   0  0  0  0  0  0  0  0  0  0  0  0
    1.2599   10.8820   -1.7520 H   0  0  0  0  0  0  0  0  0  0  0  0
    0.0327    9.6787   -3.4631 H   0  0  0  0  0  0  0  0  0  0  0  0
   -1.7413    9.7883   -3.5592 H   0  0  0  0  0  0  0  0  0  0  0  0
   -3.2031    8.6285   -2.7875 H   0  0  0  0  0  0  0  0  0  0  0  0
   -3.5594    8.3468   -4.5120 H   0  0  0  0  0  0  0  0  0  0  0  0
   -5.5107    7.6943   -3.1996 H   0  0  0  0  0  0  0  0  0  0  0  0
   -4.5028    6.6696   -2.1489 H   0  0  0  0  0  0  0  0  0  0  0  0
   -3.8239    4.1668   -4.6887 H   0  0  0  0  0  0  0  0  0  0  0  0
   -3.5386    4.6535   -3.0000 H   0  0  0  0  0  0  0  0  0  0  0  0
   -2.4397    6.0131   -5.5040 H   0  0  0  0  0  0  0  0  0  0  0  0
   -1.5093    5.0987   -4.2880 H   0  0  0  0  0  0  0  0  0  0  0  0
    1.0258    8.5878   -1.4938 H   0  0  0  0  0  0  0  0  0  0  0  0
    1.5421    5.2371    0.0478 H   0  0  0  0  0  0  0  0  0  0  0  0
    0.9413    2.8972   -0.2622 H   0  0  0  0  0  0  0  0  0  0  0  0
   -0.8163    1.1653   -0.5180 H   0  0  0  0  0  0  0  0  0  0  0  0
   -3.1789    0.5857   -0.6403 H   0  0  0  0  0  0  0  0  0  0  0  0
   -4.9122    2.3190   -0.4650 H   0  0  0  0  0  0  0  0  0  0  0  0
   -4.3114    4.6577   -0.1452 H   0  0  0  0  0  0  0  0  0  0  0  0
   -2.5540    6.3893    0.1104 H   0  0  0  0  0  0  0  0  0  0  0  0
    0.8285   14.4968    1.0057 H   0  0  0  0  0  0  0  0  0  0  0  0
    2.5031   14.3984    1.0995 H   0  0  0  0  0  0  0  0  0  0  0  0
    2.7422   12.3430   -0.4697 N   0  3  0  0  0  0  0  0  0  0  0  0
    2.6774   11.5363   -1.1017 H   0  0  0  0  0  0  0  0  0  0  0  0
   -4.7982    5.9359   -4.1051 N   0  3  0  0  0  0  0  0  0  0  0  0
   -4.8667    6.3064   -5.0603 H   0  0  0  0  0  0  0  0  0  0  0  0
   -5.6589    5.4264   -3.8732 H   0  0  0  0  0  0  0  0  0  0  0  0
  1 58  1  0  0  0  0
  2  3  1  0  0  0  0
  2 33  1  0  0  0  0
  2 58  2  0  0  0  0
  3  8  2  0  0  0  0
  3  4  1  0  0  0  0
  4  5  2  0  0  0  0
  4 34  1  0  0  0  0
  5  6  1  0  0  0  0
  5 35  1  0  0  0  0
  6  7  2  0  0  0  0
  6 36  1  0  0  0  0
  7  8  1  0  0  0  0
  7  9  1  0  0  0  0
  8 37  1  0  0  0  0
  9 10  1  0  0  0  0
  9 38  1  0  0  0  0
  9 39  1  0  0  0  0
 10 11  1  0  0  0  0
 10 12  1  0  0  0  0
 10 19  1  0  0  0  0
 12 13  2  0  0  0  0
 12 14  1  0  0  0  0
 14 18  1  0  0  0  0
 14 15  1  0  0  0  0
 15 16  1  0  0  0  0
 15 40  1  0  0  0  0
 15 41  1  0  0  0  0
 16 42  1  0  0  0  0
 16 43  1  0  0  0  0
 16 60  1  0  0  0  0
 17 18  1  0  0  0  0
 17 44  1  0  0  0  0
 17 45  1  0  0  0  0
 17 60  1  0  0  0  0
 18 46  1  0  0  0  0
 18 47  1  0  0  0  0
 19 20  1  0  0  0  0
 19 48  1  0  0  0  0
 20 21  2  0  0  0  0
 20 22  2  0  0  0  0
 20 23  1  0  0  0  0
 23 32  2  0  0  0  0
 23 24  1  0  0  0  0
 24 25  2  0  0  0  0
 24 49  1  0  0  0  0
 25 26  1  0  0  0  0
 25 50  1  0  0  0  0
 26 31  2  0  0  0  0
 26 27  1  0  0  0  0
 27 28  2  0  0  0  0
 27 51  1  0  0  0  0
 28 29  1  0  0  0  0
 28 52  1  0  0  0  0
 29 30  2  0  0  0  0
 29 53  1  0  0  0  0
 30 31  1  0  0  0  0
 30 54  1  0  0  0  0
 31 32  1  0  0  0  0
 32 55  1  0  0  0  0
 33 56  1  0  0  0  0
 33 57  1  0  0  0  0
 58 59  1  0  0  0  0
 60 61  1  0  0  0  0
 60 62  1  0  0  0  0
M  CHG  2  58   1  60   1
M  END
$$$$
ZINC03815825
  -OEChem-08230709403D

 69 73  0     0  0  0  0  0  0999 V2000
   -9.3557    3.5096   -1.0236 H   0  0  0  0  0  0  0  0  0  0  0  0
   -7.6402    2.6736   -1.7082 C   0  0  0  0  0  0  0  0  0  0  0  0
   -8.1199    2.3810   -3.1064 C   0  0  0  0  0  0  0  0  0  0  0  0
   -6.3632    2.3424   -1.3387 N   0  0  0  0  0  0  0  0  0  0  0  0
   -5.8810    2.6214    0.0209 C   0  0  0  0  0  0  0  0  0  0  0  0
   -4.5809    3.4262   -0.0724 C   0  0  0  0  0  0  0  0  0  0  0  0
   -3.5808    2.6720   -0.9516 C   0  0  0  0  0  0  0  0  0  0  0  0
   -4.1549    2.5164   -2.3617 C   0  0  0  0  0  0  0  0  0  0  0  0
   -5.4499    1.7010   -2.2943 C   0  0  0  0  0  0  0  0  0  0  0  0
   -2.3554    3.4045   -1.0145 O   0  0  0  0  0  0  0  0  0  0  0  0
   -1.2260    2.6963   -1.2812 C   0  0  0  0  0  0  0  0  0  0  0  0
   -1.3150    1.3424   -1.5939 C   0  0  0  0  0  0  0  0  0  0  0  0
   -0.1906    0.6148   -1.8592 C   0  0  0  0  0  0  0  0  0  0  0  0
    1.0633    1.2313   -1.8285 C   0  0  0  0  0  0  0  0  0  0  0  0
    1.1558    2.5985   -1.5183 C   0  0  0  0  0  0  0  0  0  0  0  0
    0.0052    3.3253   -1.2455 C   0  0  0  0  0  0  0  0  0  0  0  0
    2.4999    2.9104   -1.5666 N   0  0  0  0  0  0  0  0  0  0  0  0
    3.1685    1.7701   -1.8925 C   0  0  0  0  0  0  0  0  0  0  0  0
    2.3293    0.7883   -2.0456 N   0  0  0  0  0  0  0  0  0  0  0  0
    4.6631    1.6614   -2.0527 C   0  0  0  0  0  0  0  0  0  0  0  0
    3.0960    4.2245   -1.3141 C   0  0  0  0  0  0  0  0  0  0  0  0
    3.1769    4.9960   -2.6062 C   0  0  0  0  0  0  0  0  0  0  0  0
    4.3192    4.8912   -3.3979 C   0  0  0  0  0  0  0  0  0  0  0  0
    4.4220    5.5702   -4.5729 C   0  0  0  0  0  0  0  0  0  0  0  0
    3.3674    6.3995   -4.9913 C   0  0  0  0  0  0  0  0  0  0  0  0
    3.4402    7.1213   -6.1950 C   0  0  0  0  0  0  0  0  0  0  0  0
    2.3992    7.9143   -6.5685 C   0  0  0  0  0  0  0  0  0  0  0  0
    1.2592    8.0235   -5.7741 C   0  0  0  0  0  0  0  0  0  0  0  0
    1.1537    7.3397   -4.6022 C   0  0  0  0  0  0  0  0  0  0  0  0
    2.2082    6.5103   -4.1836 C   0  0  0  0  0  0  0  0  0  0  0  0
    2.1359    5.7890   -2.9795 C   0  0  0  0  0  0  0  0  0  0  0  0
    0.1266    8.9123   -6.2194 C   0  0  0  0  0  0  0  0  0  0  0  0
   -8.0613    1.3088   -3.2937 H   0  0  0  0  0  0  0  0  0  0  0  0
   -9.1528    2.7125   -3.2131 H   0  0  0  0  0  0  0  0  0  0  0  0
   -7.4926    2.9099   -3.8239 H   0  0  0  0  0  0  0  0  0  0  0  0
   -5.6930    1.6825    0.5418 H   0  0  0  0  0  0  0  0  0  0  0  0
   -6.6301    3.1986    0.5629 H   0  0  0  0  0  0  0  0  0  0  0  0
   -4.1619    3.5573    0.9252 H   0  0  0  0  0  0  0  0  0  0  0  0
   -4.7880    4.4020   -0.5117 H   0  0  0  0  0  0  0  0  0  0  0  0
   -3.3933    1.6866   -0.5251 H   0  0  0  0  0  0  0  0  0  0  0  0
   -4.3658    3.5009   -2.7793 H   0  0  0  0  0  0  0  0  0  0  0  0
   -3.4323    1.9999   -2.9937 H   0  0  0  0  0  0  0  0  0  0  0  0
   -5.2267    0.6870   -1.9623 H   0  0  0  0  0  0  0  0  0  0  0  0
   -5.9145    1.6709   -3.2799 H   0  0  0  0  0  0  0  0  0  0  0  0
   -2.2820    0.8625   -1.6230 H   0  0  0  0  0  0  0  0  0  0  0  0
   -0.2704   -0.4357   -2.0971 H   0  0  0  0  0  0  0  0  0  0  0  0
    0.0710    4.3765   -1.0062 H   0  0  0  0  0  0  0  0  0  0  0  0
    4.9333    1.8672   -3.0884 H   0  0  0  0  0  0  0  0  0  0  0  0
    5.1520    2.3837   -1.3991 H   0  0  0  0  0  0  0  0  0  0  0  0
    4.9848    0.6545   -1.7865 H   0  0  0  0  0  0  0  0  0  0  0  0
    2.4792    4.7725   -0.6017 H   0  0  0  0  0  0  0  0  0  0  0  0
    4.0978    4.0964   -0.9041 H   0  0  0  0  0  0  0  0  0  0  0  0
    5.1331    4.2582   -3.0762 H   0  0  0  0  0  0  0  0  0  0  0  0
    5.3116    5.4763   -5.1779 H   0  0  0  0  0  0  0  0  0  0  0  0
    4.3173    7.0465   -6.8206 H   0  0  0  0  0  0  0  0  0  0  0  0
    2.4575    8.4677   -7.4941 H   0  0  0  0  0  0  0  0  0  0  0  0
    0.2644    7.4343   -3.9966 H   0  0  0  0  0  0  0  0  0  0  0  0
    1.2589    5.8640   -2.3538 H   0  0  0  0  0  0  0  0  0  0  0  0
    0.2780    9.9178   -5.8268 H   0  0  0  0  0  0  0  0  0  0  0  0
    0.9268    9.3851   -8.0564 H   0  0  0  0  0  0  0  0  0  0  0  0
   -0.0499    8.0392   -8.0754 H   0  0  0  0  0  0  0  0  0  0  0  0
   -1.9200    8.9547   -6.0001 H   0  0  0  0  0  0  0  0  0  0  0  0
   -1.2773    7.4208   -6.0119 H   0  0  0  0  0  0  0  0  0  0  0  0
   -8.3971    3.2442   -0.7971 N   0  3  0  0  0  0  0  0  0  0  0  0
   -8.0234    3.4226    0.1425 H   0  0  0  0  0  0  0  0  0  0  0  0
    0.0692    8.9747   -7.6905 N   0  3  0  0  0  0  0  0  0  0  0  0
   -0.7278    9.5572   -7.9727 H   0  0  0  0  0  0  0  0  0  0  0  0
   -1.1402    8.3774   -5.6897 N   0  3  0  0  0  0  0  0  0  0  0  0
   -1.1063    8.3837   -4.6635 H   0  0  0  0  0  0  0  0  0  0  0  0
  1 64  1  0  0  0  0
  2  3  1  0  0  0  0
  2  4  1  0  0  0  0
  2 64  2  0  0  0  0
  3 33  1  0  0  0  0
  3 34  1  0  0  0  0
  3 35  1  0  0  0  0
  4  9  1  0  0  0  0
  4  5  1  0  0  0  0
  5  6  1  0  0  0  0
  5 36  1  0  0  0  0
  5 37  1  0  0  0  0
  6  7  1  0  0  0  0
  6 38  1  0  0  0  0
  6 39  1  0  0  0  0
  7  8  1  0  0  0  0
  7 10  1  0  0  0  0
  7 40  1  0  0  0  0
  8  9  1  0  0  0  0
  8 41  1  0  0  0  0
  8 42  1  0  0  0  0
  9 43  1  0  0  0  0
  9 44  1  0  0  0  0
 10 11  1  0  0  0  0
 11 16  2  0  0  0  0
 11 12  1  0  0  0  0
 12 13  2  0  0  0  0
 12 45  1  0  0  0  0
 13 14  1  0  0  0  0
 13 46  1  0  0  0  0
 14 19  1  0  0  0  0
 14 15  2  0  0  0  0
 15 16  1  0  0  0  0
 15 17  1  0  0  0  0
 16 47  1  0  0  0  0
 17 18  1  0  0  0  0
 17 21  1  0  0  0  0
 18 19  2  0  0  0  0
 18 20  1  0  0  0  0
 20 48  1  0  0  0  0
 20 49  1  0  0  0  0
 20 50  1  0  0  0  0
 21 22  1  0  0  0  0
 21 51  1  0  0  0  0
 21 52  1  0  0  0  0
 22 31  2  0  0  0  0
 22 23  1  0  0  0  0
 23 24  2  0  0  0  0
 23 53  1  0  0  0  0
 24 25  1  0  0  0  0
 24 54  1  0  0  0  0
 25 30  2  0  0  0  0
 25 26  1  0  0  0  0
 26 27  2  0  0  0  0
 26 55  1  0  0  0  0
 27 28  1  0  0  0  0
 27 56  1  0  0  0  0
 28 29  2  0  0  0  0
 28 32  1  0  0  0  0
 29 30  1  0  0  0  0
 29 57  1  0  0  0  0
 30 31  1  0  0  0  0
 31 58  1  0  0  0  0
 32 59  1  0  0  0  0
 32 66  1  0  0  0  0
 32 68  1  0  0  0  0
 60 66  1  0  0  0  0
 61 66  1  0  0  0  0
 62 68  1  0  0  0  0
 63 68  1  0  0  0  0
 64 65  1  0  0  0  0
 66 67  1  0  0  0  0
 68 69  1  0  0  0  0
M  CHG  3  64   1  66   1  68   1
M  END
$$$$
ZINC03815825
  -OEChem-08230709403D

 70 74  0     0  0  0  0  0  0999 V2000
   -9.3557    3.5096   -1.0236 H   0  0  0  0  0  0  0  0  0  0  0  0
   -7.6402    2.6736   -1.7082 C   0  0  0  0  0  0  0  0  0  0  0  0
   -8.1199    2.3810   -3.1064 C   0  0  0  0  0  0  0  0  0  0  0  0
   -6.3632    2.3424   -1.3387 N   0  0  0  0  0  0  0  0  0  0  0  0
   -5.8810    2.6214    0.0209 C   0  0  0  0  0  0  0  0  0  0  0  0
   -4.5809    3.4262   -0.0724 C   0  0  0  0  0  0  0  0  0  0  0  0
   -3.5808    2.6720   -0.9516 C   0  0  0  0  0  0  0  0  0  0  0  0
   -4.1549    2.5164   -2.3617 C   0  0  0  0  0  0  0  0  0  0  0  0
   -5.4499    1.7010   -2.2943 C   0  0  0  0  0  0  0  0  0  0  0  0
   -2.3554    3.4045   -1.0145 O   0  0  0  0  0  0  0  0  0  0  0  0
   -1.2260    2.6963   -1.2812 C   0  0  0  0  0  0  0  0  0  0  0  0
   -1.3150    1.3424   -1.5939 C   0  0  0  0  0  0  0  0  0  0  0  0
   -0.1906    0.6148   -1.8592 C   0  0  0  0  0  0  0  0  0  0  0  0
    1.0633    1.2313   -1.8285 C   0  0  0  0  0  0  0  0  0  0  0  0
    1.1558    2.5985   -1.5183 C   0  0  0  0  0  0  0  0  0  0  0  0
    0.0052    3.3253   -1.2455 C   0  0  0  0  0  0  0  0  0  0  0  0
    2.4999    2.9104   -1.5666 N   0  0  0  0  0  0  0  0  0  0  0  0
    3.1685    1.7701   -1.8925 C   0  0  0  0  0  0  0  0  0  0  0  0
    4.6631    1.6614   -2.0527 C   0  0  0  0  0  0  0  0  0  0  0  0
    3.0960    4.2245   -1.3141 C   0  0  0  0  0  0  0  0  0  0  0  0
    3.1769    4.9960   -2.6062 C   0  0  0  0  0  0  0  0  0  0  0  0
    4.3192    4.8912   -3.3979 C   0  0  0  0  0  0  0  0  0  0  0  0
    4.4220    5.5702   -4.5729 C   0  0  0  0  0  0  0  0  0  0  0  0
    3.3674    6.3995   -4.9913 C   0  0  0  0  0  0  0  0  0  0  0  0
    3.4402    7.1213   -6.1950 C   0  0  0  0  0  0  0  0  0  0  0  0
    2.3992    7.9143   -6.5685 C   0  0  0  0  0  0  0  0  0  0  0  0
    1.2592    8.0235   -5.7741 C   0  0  0  0  0  0  0  0  0  0  0  0
    1.1537    7.3397   -4.6022 C   0  0  0  0  0  0  0  0  0  0  0  0
    2.2082    6.5103   -4.1836 C   0  0  0  0  0  0  0  0  0  0  0  0
    2.1359    5.7890   -2.9795 C   0  0  0  0  0  0  0  0  0  0  0  0
    0.1266    8.9123   -6.2194 C   0  0  0  0  0  0  0  0  0  0  0  0
   -8.0613    1.3088   -3.2937 H   0  0  0  0  0  0  0  0  0  0  0  0
   -9.1528    2.7125   -3.2131 H   0  0  0  0  0  0  0  0  0  0  0  0
   -7.4926    2.9099   -3.8239 H   0  0  0  0  0  0  0  0  0  0  0  0
   -5.6930    1.6825    0.5418 H   0  0  0  0  0  0  0  0  0  0  0  0
   -6.6301    3.1986    0.5629 H   0  0  0  0  0  0  0  0  0  0  0  0
   -4.1619    3.5573    0.9252 H   0  0  0  0  0  0  0  0  0  0  0  0
   -4.7880    4.4020   -0.5117 H   0  0  0  0  0  0  0  0  0  0  0  0
   -3.3933    1.6866   -0.5251 H   0  0  0  0  0  0  0  0  0  0  0  0
   -4.3658    3.5009   -2.7793 H   0  0  0  0  0  0  0  0  0  0  0  0
   -3.4323    1.9999   -2.9937 H   0  0  0  0  0  0  0  0  0  0  0  0
   -5.2267    0.6870   -1.9623 H   0  0  0  0  0  0  0  0  0  0  0  0
   -5.9145    1.6709   -3.2799 H   0  0  0  0  0  0  0  0  0  0  0  0
   -2.2820    0.8625   -1.6230 H   0  0  0  0  0  0  0  0  0  0  0  0
   -0.2704   -0.4357   -2.0971 H   0  0  0  0  0  0  0  0  0  0  0  0
    0.0710    4.3765   -1.0062 H   0  0  0  0  0  0  0  0  0  0  0  0
    4.9333    1.8672   -3.0884 H   0  0  0  0  0  0  0  0  0  0  0  0
    5.1520    2.3837   -1.3991 H   0  0  0  0  0  0  0  0  0  0  0  0
    4.9848    0.6545   -1.7865 H   0  0  0  0  0  0  0  0  0  0  0  0
    2.4792    4.7725   -0.6017 H   0  0  0  0  0  0  0  0  0  0  0  0
    4.0978    4.0964   -0.9041 H   0  0  0  0  0  0  0  0  0  0  0  0
    5.1331    4.2582   -3.0762 H   0  0  0  0  0  0  0  0  0  0  0  0
    5.3116    5.4763   -5.1779 H   0  0  0  0  0  0  0  0  0  0  0  0
    4.3173    7.0465   -6.8206 H   0  0  0  0  0  0  0  0  0  0  0  0
    2.4575    8.4677   -7.4941 H   0  0  0  0  0  0  0  0  0  0  0  0
    0.2644    7.4343   -3.9966 H   0  0  0  0  0  0  0  0  0  0  0  0
    1.2589    5.8640   -2.3538 H   0  0  0  0  0  0  0  0  0  0  0  0
    0.2780    9.9178   -5.8268 H   0  0  0  0  0  0  0  0  0  0  0  0
    0.9268    9.3851   -8.0564 H   0  0  0  0  0  0  0  0  0  0  0  0
   -0.0499    8.0392   -8.0754 H   0  0  0  0  0  0  0  0  0  0  0  0
   -1.9200    8.9547   -6.0001 H   0  0  0  0  0  0  0  0  0  0  0  0
   -1.2773    7.4208   -6.0119 H   0  0  0  0  0  0  0  0  0  0  0  0
   -8.3971    3.2442   -0.7971 N   0  3  0  0  0  0  0  0  0  0  0  0
   -8.0234    3.4226    0.1425 H   0  0  0  0  0  0  0  0  0  0  0  0
    0.0692    8.9747   -7.6905 N   0  3  0  0  0  0  0  0  0  0  0  0
   -0.7278    9.5572   -7.9727 H   0  0  0  0  0  0  0  0  0  0  0  0
   -1.1402    8.3774   -5.6897 N   0  3  0  0  0  0  0  0  0  0  0  0
   -1.1063    8.3837   -4.6635 H   0  0  0  0  0  0  0  0  0  0  0  0
    2.3296    0.7872   -2.0459 N   0  3  0  0  0  0  0  0  0  0  0  0
    2.5850   -0.1760   -2.2932 H   0  0  0  0  0  0  0  0  0  0  0  0
  1 63  1  0  0  0  0
  2  3  1  0  0  0  0
  2  4  1  0  0  0  0
  2 63  2  0  0  0  0
  3 32  1  0  0  0  0
  3 33  1  0  0  0  0
  3 34  1  0  0  0  0
  4  9  1  0  0  0  0
  4  5  1  0  0  0  0
  5  6  1  0  0  0  0
  5 35  1  0  0  0  0
  5 36  1  0  0  0  0
  6  7  1  0  0  0  0
  6 37  1  0  0  0  0
  6 38  1  0  0  0  0
  7  8  1  0  0  0  0
  7 10  1  0  0  0  0
  7 39  1  0  0  0  0
  8  9  1  0  0  0  0
  8 40  1  0  0  0  0
  8 41  1  0  0  0  0
  9 42  1  0  0  0  0
  9 43  1  0  0  0  0
 10 11  1  0  0  0  0
 11 16  2  0  0  0  0
 11 12  1  0  0  0  0
 12 13  2  0  0  0  0
 12 44  1  0  0  0  0
 13 14  1  0  0  0  0
 13 45  1  0  0  0  0
 14 15  2  0  0  0  0
 14 69  1  0  0  0  0
 15 16  1  0  0  0  0
 15 17  1  0  0  0  0
 16 46  1  0  0  0  0
 17 18  1  0  0  0  0
 17 20  1  0  0  0  0
 18 19  1  0  0  0  0
 18 69  2  0  0  0  0
 19 47  1  0  0  0  0
 19 48  1  0  0  0  0
 19 49  1  0  0  0  0
 20 21  1  0  0  0  0
 20 50  1  0  0  0  0
 20 51  1  0  0  0  0
 21 30  2  0  0  0  0
 21 22  1  0  0  0  0
 22 23  2  0  0  0  0
 22 52  1  0  0  0  0
 23 24  1  0  0  0  0
 23 53  1  0  0  0  0
 24 29  2  0  0  0  0
 24 25  1  0  0  0  0
 25 26  2  0  0  0  0
 25 54  1  0  0  0  0
 26 27  1  0  0  0  0
 26 55  1  0  0  0  0
 27 28  2  0  0  0  0
 27 31  1  0  0  0  0
 28 29  1  0  0  0  0
 28 56  1  0  0  0  0
 29 30  1  0  0  0  0
 30 57  1  0  0  0  0
 31 58  1  0  0  0  0
 31 65  1  0  0  0  0
 31 67  1  0  0  0  0
 59 65  1  0  0  0  0
 60 65  1  0  0  0  0
 61 67  1  0  0  0  0
 62 67  1  0  0  0  0
 63 64  1  0  0  0  0
 65 66  1  0  0  0  0
 67 68  1  0  0  0  0
 69 70  1  0  0  0  0
M  CHG  4  63   1  65   1  67   1  69   1
M  END
$$$$
ZINC03815826
  -OEChem-08230709403D

 49 52  0     0  0  0  0  0  0999 V2000
   -3.5451    2.7570   -4.5480 C   0  0  0  0  0  0  0  0  0  0  0  0
   -3.5279    2.0864   -3.3579 C   0  0  0  0  0  0  0  0  0  0  0  0
   -2.3371    1.9822   -2.6346 C   0  0  0  0  0  0  0  0  0  0  0  0
   -1.1650    2.5659   -3.1448 C   0  0  0  0  0  0  0  0  0  0  0  0
   -1.2030    3.2487   -4.3528 C   0  0  0  0  0  0  0  0  0  0  0  0
   -2.3893    3.3381   -5.0496 C   0  0  0  0  0  0  0  0  0  0  0  0
   -2.4312    4.0728   -6.3648 C   0  0  0  0  0  0  0  0  0  0  0  0
   -0.1744    2.3024   -2.2200 N   0  0  0  0  0  0  0  0  0  0  0  0
   -2.6354    0.8876   -0.8678 H   0  0  0  0  0  0  0  0  0  0  0  0
   -0.7416    1.5850   -1.2129 C   0  0  0  0  0  0  0  0  0  0  0  0
   -2.0049    1.3926   -1.4573 N   0  0  0  0  0  0  0  0  0  0  0  0
   -0.0127    1.0858    0.0080 C   0  0  0  0  0  0  0  0  0  0  0  0
   -0.7181    1.5718    1.2479 C   0  0  0  0  0  0  0  0  0  0  0  0
   -1.1661    0.7726    2.2535 N   0  0  0  0  0  0  0  0  0  0  0  0
   -1.0867   -0.2232    2.2992 H   0  0  0  0  0  0  0  0  0  0  0  0
   -1.7506    1.5911    3.1991 C   0  0  0  0  0  0  0  0  0  0  0  0
   -2.3722    1.3674    4.4200 C   0  0  0  0  0  0  0  0  0  0  0  0
   -2.8631    2.4344    5.1420 C   0  0  0  0  0  0  0  0  0  0  0  0
   -2.7413    3.7282    4.6556 C   0  0  0  0  0  0  0  0  0  0  0  0
   -2.1330    3.9674    3.4560 C   0  0  0  0  0  0  0  0  0  0  0  0
   -1.6271    2.9017    2.7072 C   0  0  0  0  0  0  0  0  0  0  0  0
   -0.9824    2.8174    1.5152 N   0  0  0  0  0  0  0  0  0  0  0  0
   -3.5374    2.1938    6.4681 C   0  0  0  0  0  0  0  0  0  0  0  0
   -4.4676    2.8353   -5.1042 H   0  0  0  0  0  0  0  0  0  0  0  0
   -4.4332    1.6372   -2.9770 H   0  0  0  0  0  0  0  0  0  0  0  0
   -0.3063    3.7034   -4.7475 H   0  0  0  0  0  0  0  0  0  0  0  0
   -2.2172    3.3774   -7.1765 H   0  0  0  0  0  0  0  0  0  0  0  0
   -4.4681    3.9343   -6.6298 H   0  0  0  0  0  0  0  0  0  0  0  0
   -3.9879    5.3040   -5.8179 H   0  0  0  0  0  0  0  0  0  0  0  0
   -0.5066    4.7759   -6.1641 H   0  0  0  0  0  0  0  0  0  0  0  0
   -1.4338    5.6516   -7.2315 H   0  0  0  0  0  0  0  0  0  0  0  0
    0.0021   -0.0041    0.0020 H   0  0  0  0  0  0  0  0  0  0  0  0
    1.0099    1.4631    0.0003 H   0  0  0  0  0  0  0  0  0  0  0  0
   -2.4701    0.3623    4.8028 H   0  0  0  0  0  0  0  0  0  0  0  0
   -3.1310    4.5546    5.2315 H   0  0  0  0  0  0  0  0  0  0  0  0
   -2.0429    4.9784    3.0871 H   0  0  0  0  0  0  0  0  0  0  0  0
   -2.7948    2.2301    7.2652 H   0  0  0  0  0  0  0  0  0  0  0  0
   -5.0190    3.0917    7.5803 H   0  0  0  0  0  0  0  0  0  0  0  0
   -4.1453    4.1529    6.6442 H   0  0  0  0  0  0  0  0  0  0  0  0
   -4.8739    0.8143    5.7270 H   0  0  0  0  0  0  0  0  0  0  0  0
   -3.4957    0.1380    6.3666 H   0  0  0  0  0  0  0  0  0  0  0  0
   -3.7622    4.6671   -6.5802 N   0  3  0  0  0  0  0  0  0  0  0  0
   -3.7594    5.1899   -7.4639 H   0  0  0  0  0  0  0  0  0  0  0  0
   -1.4343    5.1578   -6.3405 N   0  3  0  0  0  0  0  0  0  0  0  0
   -1.6726    5.8184   -5.5915 H   0  0  0  0  0  0  0  0  0  0  0  0
   -4.5676    3.2265    6.6771 N   0  3  0  0  0  0  0  0  0  0  0  0
   -5.2739    3.1537    5.9354 H   0  0  0  0  0  0  0  0  0  0  0  0
   -4.1913    0.8733    6.4808 N   0  3  0  0  0  0  0  0  0  0  0  0
   -4.6719    0.7433    7.3788 H   0  0  0  0  0  0  0  0  0  0  0  0
  1  6  2  0  0  0  0
  1  2  1  0  0  0  0
  1 24  1  0  0  0  0
  2  3  2  0  0  0  0
  2 25  1  0  0  0  0
  3 11  1  0  0  0  0
  3  4  1  0  0  0  0
  4  5  2  0  0  0  0
  4  8  1  0  0  0  0
  5  6  1  0  0  0  0
  5 26  1  0  0  0  0
  6  7  1  0  0  0  0
  7 27  1  0  0  0  0
  7 42  1  0  0  0  0
  7 44  1  0  0  0  0
  8 10  2  0  0  0  0
  9 11  1  0  0  0  0
 10 12  1  0  0  0  0
 10 11  1  0  0  0  0
 12 13  1  0  0  0  0
 12 32  1  0  0  0  0
 12 33  1  0  0  0  0
 13 22  2  0  0  0  0
 13 14  1  0  0  0  0
 14 15  1  0  0  0  0
 14 16  1  0  0  0  0
 16 21  2  0  0  0  0
 16 17  1  0  0  0  0
 17 18  2  0  0  0  0
 17 34  1  0  0  0  0
 18 19  1  0  0  0  0
 18 23  1  0  0  0  0
 19 20  2  0  0  0  0
 19 35  1  0  0  0  0
 20 21  1  0  0  0  0
 20 36  1  0  0  0  0
 21 22  1  0  0  0  0
 23 37  1  0  0  0  0
 23 46  1  0  0  0  0
 23 48  1  0  0  0  0
 28 42  1  0  0  0  0
 29 42  1  0  0  0  0
 30 44  1  0  0  0  0
 31 44  1  0  0  0  0
 38 46  1  0  0  0  0
 39 46  1  0  0  0  0
 40 48  1  0  0  0  0
 41 48  1  0  0  0  0
 42 43  1  0  0  0  0
 44 45  1  0  0  0  0
 46 47  1  0  0  0  0
 48 49  1  0  0  0  0
M  CHG  4  42   1  44   1  46   1  48   1
M  END
$$$$
ZINC03815826
  -OEChem-08230709403D

 50 53  0     0  0  0  0  0  0999 V2000
   -3.5411    2.7415   -4.5568 C   0  0  0  0  0  0  0  0  0  0  0  0
   -3.5245    2.0731   -3.3654 C   0  0  0  0  0  0  0  0  0  0  0  0
   -2.3350    1.9742   -2.6391 C   0  0  0  0  0  0  0  0  0  0  0  0
   -1.1650    2.5659   -3.1448 C   0  0  0  0  0  0  0  0  0  0  0  0
   -1.2011    3.2413   -4.3570 C   0  0  0  0  0  0  0  0  0  0  0  0
   -2.3860    3.3255   -5.0568 C   0  0  0  0  0  0  0  0  0  0  0  0
   -2.4272    4.0576   -6.3734 C   0  0  0  0  0  0  0  0  0  0  0  0
   -0.1744    2.3024   -2.2200 N   0  0  0  0  0  0  0  0  0  0  0  0
    0.7826    2.5863   -2.2794 H   0  0  0  0  0  0  0  0  0  0  0  0
   -0.7416    1.5850   -1.2129 C   0  0  0  0  0  0  0  0  0  0  0  0
   -2.0037    1.3880   -1.4599 N   0  0  0  0  0  0  0  0  0  0  0  0
   -0.0127    1.0858    0.0080 C   0  0  0  0  0  0  0  0  0  0  0  0
   -0.7181    1.5718    1.2479 C   0  0  0  0  0  0  0  0  0  0  0  0
   -1.1661    0.7726    2.2535 N   0  0  0  0  0  0  0  0  0  0  0  0
   -1.0867   -0.2232    2.2992 H   0  0  0  0  0  0  0  0  0  0  0  0
   -1.7506    1.5911    3.1991 C   0  0  0  0  0  0  0  0  0  0  0  0
   -2.3722    1.3674    4.4200 C   0  0  0  0  0  0  0  0  0  0  0  0
   -2.8631    2.4344    5.1420 C   0  0  0  0  0  0  0  0  0  0  0  0
   -2.7413    3.7282    4.6556 C   0  0  0  0  0  0  0  0  0  0  0  0
   -2.1330    3.9674    3.4560 C   0  0  0  0  0  0  0  0  0  0  0  0
   -1.6271    2.9017    2.7072 C   0  0  0  0  0  0  0  0  0  0  0  0
   -3.5374    2.1938    6.4681 C   0  0  0  0  0  0  0  0  0  0  0  0
   -4.4625    2.8157   -5.1153 H   0  0  0  0  0  0  0  0  0  0  0  0
   -4.4292    1.6216   -2.9858 H   0  0  0  0  0  0  0  0  0  0  0  0
   -0.3050    3.6982   -4.7504 H   0  0  0  0  0  0  0  0  0  0  0  0
   -2.2090    3.3614   -7.1833 H   0  0  0  0  0  0  0  0  0  0  0  0
   -4.4630    3.9118   -6.6430 H   0  0  0  0  0  0  0  0  0  0  0  0
   -3.9893    5.2846   -5.8325 H   0  0  0  0  0  0  0  0  0  0  0  0
   -0.5055    4.7674   -6.1695 H   0  0  0  0  0  0  0  0  0  0  0  0
   -1.4330    5.6380   -7.2407 H   0  0  0  0  0  0  0  0  0  0  0  0
    0.0021   -0.0041    0.0020 H   0  0  0  0  0  0  0  0  0  0  0  0
    1.0099    1.4631    0.0003 H   0  0  0  0  0  0  0  0  0  0  0  0
   -2.4701    0.3623    4.8028 H   0  0  0  0  0  0  0  0  0  0  0  0
   -3.1310    4.5546    5.2315 H   0  0  0  0  0  0  0  0  0  0  0  0
   -2.0429    4.9784    3.0871 H   0  0  0  0  0  0  0  0  0  0  0  0
   -2.7948    2.2301    7.2652 H   0  0  0  0  0  0  0  0  0  0  0  0
   -5.0190    3.0917    7.5803 H   0  0  0  0  0  0  0  0  0  0  0  0
   -4.1453    4.1529    6.6442 H   0  0  0  0  0  0  0  0  0  0  0  0
   -4.8739    0.8143    5.7270 H   0  0  0  0  0  0  0  0  0  0  0  0
   -3.4957    0.1380    6.3666 H   0  0  0  0  0  0  0  0  0  0  0  0
   -3.7597    4.6470   -6.5931 N   0  3  0  0  0  0  0  0  0  0  0  0
   -3.7565    5.1682   -7.4777 H   0  0  0  0  0  0  0  0  0  0  0  0
   -1.4340    5.1459   -6.3488 N   0  3  0  0  0  0  0  0  0  0  0  0
   -1.6763    5.8071   -5.6016 H   0  0  0  0  0  0  0  0  0  0  0  0
   -4.5676    3.2265    6.6771 N   0  3  0  0  0  0  0  0  0  0  0  0
   -5.2739    3.1537    5.9354 H   0  0  0  0  0  0  0  0  0  0  0  0
   -4.1913    0.8733    6.4808 N   0  3  0  0  0  0  0  0  0  0  0  0
   -4.6719    0.7433    7.3788 H   0  0  0  0  0  0  0  0  0  0  0  0
   -0.9821    2.8183    1.5145 N   0  3  0  0  0  0  0  0  0  0  0  0
   -0.7400    3.6161    0.9153 H   0  0  0  0  0  0  0  0  0  0  0  0
  1  6  2  0  0  0  0
  1  2  1  0  0  0  0
  1 23  1  0  0  0  0
  2  3  2  0  0  0  0
  2 24  1  0  0  0  0
  3 11  1  0  0  0  0
  3  4  1  0  0  0  0
  4  5  2  0  0  0  0
  4  8  1  0  0  0  0
  5  6  1  0  0  0  0
  5 25  1  0  0  0  0
  6  7  1  0  0  0  0
  7 26  1  0  0  0  0
  7 41  1  0  0  0  0
  7 43  1  0  0  0  0
  8  9  1  0  0  0  0
  8 10  1  0  0  0  0
 10 11  2  0  0  0  0
 10 12  1  0  0  0  0
 12 13  1  0  0  0  0
 12 31  1  0  0  0  0
 12 32  1  0  0  0  0
 13 14  1  0  0  0  0
 13 49  2  0  0  0  0
 14 15  1  0  0  0  0
 14 16  1  0  0  0  0
 16 21  2  0  0  0  0
 16 17  1  0  0  0  0
 17 18  2  0  0  0  0
 17 33  1  0  0  0  0
 18 19  1  0  0  0  0
 18 22  1  0  0  0  0
 19 20  2  0  0  0  0
 19 34  1  0  0  0  0
 20 21  1  0  0  0  0
 20 35  1  0  0  0  0
 21 49  1  0  0  0  0
 22 36  1  0  0  0  0
 22 45  1  0  0  0  0
 22 47  1  0  0  0  0
 27 41  1  0  0  0  0
 28 41  1  0  0  0  0
 29 43  1  0  0  0  0
 30 43  1  0  0  0  0
 37 45  1  0  0  0  0
 38 45  1  0  0  0  0
 39 47  1  0  0  0  0
 40 47  1  0  0  0  0
 41 42  1  0  0  0  0
 43 44  1  0  0  0  0
 45 46  1  0  0  0  0
 47 48  1  0  0  0  0
 49 50  1  0  0  0  0
M  CHG  5  41   1  43   1  45   1  47   1  49   1
M  END
$$$$
ZINC03815826
  -OEChem-08230709403D

 49 52  0     0  0  0  0  0  0999 V2000
   -3.5451    2.7570   -4.5480 C   0  0  0  0  0  0  0  0  0  0  0  0
   -3.5279    2.0864   -3.3579 C   0  0  0  0  0  0  0  0  0  0  0  0
   -2.3371    1.9822   -2.6346 C   0  0  0  0  0  0  0  0  0  0  0  0
   -1.1650    2.5659   -3.1448 C   0  0  0  0  0  0  0  0  0  0  0  0
   -1.2030    3.2487   -4.3528 C   0  0  0  0  0  0  0  0  0  0  0  0
   -2.3893    3.3381   -5.0496 C   0  0  0  0  0  0  0  0  0  0  0  0
   -2.4312    4.0728   -6.3648 C   0  0  0  0  0  0  0  0  0  0  0  0
   -0.1744    2.3024   -2.2200 N   0  0  0  0  0  0  0  0  0  0  0  0
   -2.6354    0.8876   -0.8678 H   0  0  0  0  0  0  0  0  0  0  0  0
   -0.7416    1.5850   -1.2129 C   0  0  0  0  0  0  0  0  0  0  0  0
   -2.0049    1.3926   -1.4573 N   0  0  0  0  0  0  0  0  0  0  0  0
   -0.0127    1.0858    0.0080 C   0  0  0  0  0  0  0  0  0  0  0  0
   -0.7181    1.5718    1.2479 C   0  0  0  0  0  0  0  0  0  0  0  0
   -1.1661    0.7726    2.2535 N   0  0  0  0  0  0  0  0  0  0  0  0
   -1.0867   -0.2232    2.2992 H   0  0  0  0  0  0  0  0  0  0  0  0
   -1.7506    1.5911    3.1991 C   0  0  0  0  0  0  0  0  0  0  0  0
   -2.3722    1.3674    4.4200 C   0  0  0  0  0  0  0  0  0  0  0  0
   -2.8631    2.4344    5.1420 C   0  0  0  0  0  0  0  0  0  0  0  0
   -2.7413    3.7282    4.6556 C   0  0  0  0  0  0  0  0  0  0  0  0
   -2.1330    3.9674    3.4560 C   0  0  0  0  0  0  0  0  0  0  0  0
   -1.6271    2.9017    2.7072 C   0  0  0  0  0  0  0  0  0  0  0  0
   -0.9824    2.8174    1.5152 N   0  0  0  0  0  0  0  0  0  0  0  0
   -3.5374    2.1938    6.4681 C   0  0  0  0  0  0  0  0  0  0  0  0
   -4.4676    2.8353   -5.1042 H   0  0  0  0  0  0  0  0  0  0  0  0
   -4.4332    1.6372   -2.9770 H   0  0  0  0  0  0  0  0  0  0  0  0
   -0.3063    3.7034   -4.7475 H   0  0  0  0  0  0  0  0  0  0  0  0
   -2.2172    3.3774   -7.1765 H   0  0  0  0  0  0  0  0  0  0  0  0
   -4.4681    3.9343   -6.6298 H   0  0  0  0  0  0  0  0  0  0  0  0
   -3.9879    5.3040   -5.8179 H   0  0  0  0  0  0  0  0  0  0  0  0
   -0.5066    4.7759   -6.1641 H   0  0  0  0  0  0  0  0  0  0  0  0
   -1.4338    5.6516   -7.2315 H   0  0  0  0  0  0  0  0  0  0  0  0
    0.0021   -0.0041    0.0020 H   0  0  0  0  0  0  0  0  0  0  0  0
    1.0099    1.4631    0.0003 H   0  0  0  0  0  0  0  0  0  0  0  0
   -2.4701    0.3623    4.8028 H   0  0  0  0  0  0  0  0  0  0  0  0
   -3.1310    4.5546    5.2315 H   0  0  0  0  0  0  0  0  0  0  0  0
   -2.0429    4.9784    3.0871 H   0  0  0  0  0  0  0  0  0  0  0  0
   -2.7948    2.2301    7.2652 H   0  0  0  0  0  0  0  0  0  0  0  0
   -5.0190    3.0917    7.5803 H   0  0  0  0  0  0  0  0  0  0  0  0
   -4.1453    4.1529    6.6442 H   0  0  0  0  0  0  0  0  0  0  0  0
   -4.8739    0.8143    5.7270 H   0  0  0  0  0  0  0  0  0  0  0  0
   -3.4957    0.1380    6.3666 H   0  0  0  0  0  0  0  0  0  0  0  0
   -3.7622    4.6671   -6.5802 N   0  3  0  0  0  0  0  0  0  0  0  0
   -3.7594    5.1899   -7.4639 H   0  0  0  0  0  0  0  0  0  0  0  0
   -1.4343    5.1578   -6.3405 N   0  3  0  0  0  0  0  0  0  0  0  0
   -1.6726    5.8184   -5.5915 H   0  0  0  0  0  0  0  0  0  0  0  0
   -4.5676    3.2265    6.6771 N   0  3  0  0  0  0  0  0  0  0  0  0
   -5.2739    3.1537    5.9354 H   0  0  0  0  0  0  0  0  0  0  0  0
   -4.1913    0.8733    6.4808 N   0  3  0  0  0  0  0  0  0  0  0  0
   -4.6719    0.7433    7.3788 H   0  0  0  0  0  0  0  0  0  0  0  0
  1  6  2  0  0  0  0
  1  2  1  0  0  0  0
  1 24  1  0  0  0  0
  2  3  2  0  0  0  0
  2 25  1  0  0  0  0
  3 11  1  0  0  0  0
  3  4  1  0  0  0  0
  4  5  2  0  0  0  0
  4  8  1  0  0  0  0
  5  6  1  0  0  0  0
  5 26  1  0  0  0  0
  6  7  1  0  0  0  0
  7 27  1  0  0  0  0
  7 42  1  0  0  0  0
  7 44  1  0  0  0  0
  8 10  2  0  0  0  0
  9 11  1  0  0  0  0
 10 12  1  0  0  0  0
 10 11  1  0  0  0  0
 12 13  1  0  0  0  0
 12 32  1  0  0  0  0
 12 33  1  0  0  0  0
 13 22  2  0  0  0  0
 13 14  1  0  0  0  0
 14 15  1  0  0  0  0
 14 16  1  0  0  0  0
 16 21  2  0  0  0  0
 16 17  1  0  0  0  0
 17 18  2  0  0  0  0
 17 34  1  0  0  0  0
 18 19  1  0  0  0  0
 18 23  1  0  0  0  0
 19 20  2  0  0  0  0
 19 35  1  0  0  0  0
 20 21  1  0  0  0  0
 20 36  1  0  0  0  0
 21 22  1  0  0  0  0
 23 37  1  0  0  0  0
 23 46  1  0  0  0  0
 23 48  1  0  0  0  0
 28 42  1  0  0  0  0
 29 42  1  0  0  0  0
 30 44  1  0  0  0  0
 31 44  1  0  0  0  0
 38 46  1  0  0  0  0
 39 46  1  0  0  0  0
 40 48  1  0  0  0  0
 41 48  1  0  0  0  0
 42 43  1  0  0  0  0
 44 45  1  0  0  0  0
 46 47  1  0  0  0  0
 48 49  1  0  0  0  0
M  CHG  4  42   1  44   1  46   1  48   1
M  END
$$$$
ZINC03815827
  -OEChem-08230709403D

 75 79  0     0  0  0  0  0  0999 V2000
   -1.5641   10.8984    8.8488 C   0  0  0  0  0  0  0  0  0  0  0  0
   -0.8601    9.7671    8.0968 C   0  0  0  0  0  0  0  0  0  0  0  0
   -1.3507    8.4878    8.5773 O   0  0  0  0  0  0  0  0  0  0  0  0
   -0.8301    7.3855    8.0155 C   0  0  0  0  0  0  0  0  0  0  0  0
    0.0079    7.4863    7.1509 O   0  0  0  0  0  0  0  0  0  0  0  0
   -1.2907    6.0223    8.4632 C   0  0  0  0  0  0  0  0  0  0  0  0
   -0.5951    5.0174    7.7226 O   0  0  0  0  0  0  0  0  0  0  0  0
   -0.9568    3.6929    8.0687 N   0  0  0  0  0  0  0  0  0  0  0  0
   -0.3980    2.6927    7.4696 C   0  0  0  0  0  0  0  0  0  0  0  0
   -0.8741    1.3181    7.7264 C   0  0  0  0  0  0  0  0  0  0  0  0
   -1.8515    1.0941    8.6966 C   0  0  0  0  0  0  0  0  0  0  0  0
   -2.2905   -0.1991    8.9221 C   0  0  0  0  0  0  0  0  0  0  0  0
   -1.7310   -1.2280    8.1780 C   0  0  0  0  0  0  0  0  0  0  0  0
   -0.7616   -0.9349    7.2351 C   0  0  0  0  0  0  0  0  0  0  0  0
   -0.3645    0.3045    7.0359 N   0  0  0  0  0  0  0  0  0  0  0  0
    0.7391    2.9292    6.5093 C   0  0  0  0  0  0  0  0  0  0  0  0
    1.6756    4.1039    6.7988 C   0  0  0  0  0  0  0  0  0  0  0  0
    2.1585    2.6678    7.0170 C   0  0  0  0  0  0  0  0  0  0  0  0
    0.4471    2.6116    5.0654 C   0  0  0  0  0  0  0  0  0  0  0  0
    1.4756    2.1946    4.2322 C   0  0  0  0  0  0  0  0  0  0  0  0
    1.2267    1.8999    2.9087 C   0  0  0  0  0  0  0  0  0  0  0  0
   -0.0623    2.0216    2.4078 C   0  0  0  0  0  0  0  0  0  0  0  0
   -1.1033    2.4438    3.2517 C   0  0  0  0  0  0  0  0  0  0  0  0
   -0.8273    2.7375    4.5898 C   0  0  0  0  0  0  0  0  0  0  0  0
   -1.9598    2.1069    1.2827 C   0  0  0  0  0  0  0  0  0  0  0  0
   -0.6363    1.8133    1.1696 N   0  0  0  0  0  0  0  0  0  0  0  0
    0.0532    1.3653   -0.0428 C   0  0  0  0  0  0  0  0  0  0  0  0
   -2.9622    2.0203    0.1607 C   0  0  0  0  0  0  0  0  0  0  0  0
   -3.5498    0.6785    0.1333 N   0  0  0  0  0  0  0  0  0  0  0  0
   -4.5117    0.3568   -0.8269 C   0  0  0  0  0  0  0  0  0  0  0  0
   -4.9167    1.3097   -1.7530 C   0  0  0  0  0  0  0  0  0  0  0  0
   -5.8646    0.9869   -2.7041 C   0  0  0  0  0  0  0  0  0  0  0  0
   -6.4181   -0.2801   -2.7285 C   0  0  0  0  0  0  0  0  0  0  0  0
   -6.0211   -1.2295   -1.8048 C   0  0  0  0  0  0  0  0  0  0  0  0
   -5.0698   -0.9149   -0.8543 C   0  0  0  0  0  0  0  0  0  0  0  0
   -7.4561   -0.6272   -3.7645 C   0  0  0  0  0  0  0  0  0  0  0  0
   -2.6388   10.8343    8.6785 H   0  0  0  0  0  0  0  0  0  0  0  0
   -1.3592   10.8082    9.9155 H   0  0  0  0  0  0  0  0  0  0  0  0
   -1.1957   11.8588    8.4880 H   0  0  0  0  0  0  0  0  0  0  0  0
    0.2146    9.8313    8.2670 H   0  0  0  0  0  0  0  0  0  0  0  0
   -1.0650    9.8574    7.0300 H   0  0  0  0  0  0  0  0  0  0  0  0
   -2.3623    5.9255    8.2891 H   0  0  0  0  0  0  0  0  0  0  0  0
   -1.0828    5.8994    9.5261 H   0  0  0  0  0  0  0  0  0  0  0  0
   -2.2624    1.9183    9.2607 H   0  0  0  0  0  0  0  0  0  0  0  0
   -3.0487   -0.4032    9.6637 H   0  0  0  0  0  0  0  0  0  0  0  0
   -2.0496   -2.2482    8.3330 H   0  0  0  0  0  0  0  0  0  0  0  0
   -0.3248   -1.7339    6.6544 H   0  0  0  0  0  0  0  0  0  0  0  0
    2.0805    4.6470    5.9450 H   0  0  0  0  0  0  0  0  0  0  0  0
    1.4695    4.7055    7.6841 H   0  0  0  0  0  0  0  0  0  0  0  0
    2.2700    2.3252    8.0457 H   0  0  0  0  0  0  0  0  0  0  0  0
    2.8811    2.2662    6.3067 H   0  0  0  0  0  0  0  0  0  0  0  0
    2.4778    2.1001    4.6234 H   0  0  0  0  0  0  0  0  0  0  0  0
    2.0308    1.5762    2.2645 H   0  0  0  0  0  0  0  0  0  0  0  0
   -1.6201    3.0635    5.2467 H   0  0  0  0  0  0  0  0  0  0  0  0
    0.0336    0.2765   -0.0906 H   0  0  0  0  0  0  0  0  0  0  0  0
    1.0872    1.7094   -0.0210 H   0  0  0  0  0  0  0  0  0  0  0  0
   -0.4482    1.7765   -0.9189 H   0  0  0  0  0  0  0  0  0  0  0  0
   -3.7488    2.7582    0.3185 H   0  0  0  0  0  0  0  0  0  0  0  0
   -2.4636    2.2180   -0.7881 H   0  0  0  0  0  0  0  0  0  0  0  0
   -3.2707    0.0135    0.7820 H   0  0  0  0  0  0  0  0  0  0  0  0
   -4.4880    2.3008   -1.7316 H   0  0  0  0  0  0  0  0  0  0  0  0
   -6.1769    1.7260   -3.4270 H   0  0  0  0  0  0  0  0  0  0  0  0
   -6.4552   -2.2182   -1.8268 H   0  0  0  0  0  0  0  0  0  0  0  0
   -4.7599   -1.6569   -0.1333 H   0  0  0  0  0  0  0  0  0  0  0  0
   -8.4484   -0.3994   -3.3752 H   0  0  0  0  0  0  0  0  0  0  0  0
   -6.3009   -0.0343   -5.3622 H   0  0  0  0  0  0  0  0  0  0  0  0
   -7.9353   -0.0075   -5.6684 H   0  0  0  0  0  0  0  0  0  0  0  0
   -7.4696   -2.6204   -3.2493 H   0  0  0  0  0  0  0  0  0  0  0  0
   -8.0579   -2.3169   -4.7750 H   0  0  0  0  0  0  0  0  0  0  0  0
   -7.2165    0.1826   -4.9721 N   0  3  0  0  0  0  0  0  0  0  0  0
   -7.2470    1.1781   -4.7224 H   0  0  0  0  0  0  0  0  0  0  0  0
   -7.3479   -2.0600   -4.0912 N   0  3  0  0  0  0  0  0  0  0  0  0
   -6.4189   -2.2468   -4.4866 H   0  0  0  0  0  0  0  0  0  0  0  0
   -2.2356    2.4711    2.5016 N   0  3  0  0  0  0  0  0  0  0  0  0
   -3.1661    2.7380    2.8437 H   0  0  0  0  0  0  0  0  0  0  0  0
  1  2  1  0  0  0  0
  1 37  1  0  0  0  0
  1 38  1  0  0  0  0
  1 39  1  0  0  0  0
  2  3  1  0  0  0  0
  2 40  1  0  0  0  0
  2 41  1  0  0  0  0
  3  4  1  0  0  0  0
  4  5  2  0  0  0  0
  4  6  1  0  0  0  0
  6  7  1  0  0  0  0
  6 42  1  0  0  0  0
  6 43  1  0  0  0  0
  7  8  1  0  0  0  0
  8  9  2  0  0  0  0
  9 10  1  0  0  0  0
  9 16  1  0  0  0  0
 10 15  2  0  0  0  0
 10 11  1  0  0  0  0
 11 12  2  0  0  0  0
 11 44  1  0  0  0  0
 12 13  1  0  0  0  0
 12 45  1  0  0  0  0
 13 14  2  0  0  0  0
 13 46  1  0  0  0  0
 14 15  1  0  0  0  0
 14 47  1  0  0  0  0
 16 18  1  0  0  0  0
 16 17  1  0  0  0  0
 16 19  1  0  0  0  0
 17 18  1  0  0  0  0
 17 48  1  0  0  0  0
 17 49  1  0  0  0  0
 18 50  1  0  0  0  0
 18 51  1  0  0  0  0
 19 24  2  0  0  0  0
 19 20  1  0  0  0  0
 20 21  2  0  0  0  0
 20 52  1  0  0  0  0
 21 22  1  0  0  0  0
 21 53  1  0  0  0  0
 22 26  1  0  0  0  0
 22 23  2  0  0  0  0
 23 24  1  0  0  0  0
 23 74  1  0  0  0  0
 24 54  1  0  0  0  0
 25 26  1  0  0  0  0
 25 28  1  0  0  0  0
 25 74  2  0  0  0  0
 26 27  1  0  0  0  0
 27 55  1  0  0  0  0
 27 56  1  0  0  0  0
 27 57  1  0  0  0  0
 28 29  1  0  0  0  0
 28 58  1  0  0  0  0
 28 59  1  0  0  0  0
 29 30  1  0  0  0  0
 29 60  1  0  0  0  0
 30 35  2  0  0  0  0
 30 31  1  0  0  0  0
 31 32  2  0  0  0  0
 31 61  1  0  0  0  0
 32 33  1  0  0  0  0
 32 62  1  0  0  0  0
 33 34  2  0  0  0  0
 33 36  1  0  0  0  0
 34 35  1  0  0  0  0
 34 63  1  0  0  0  0
 35 64  1  0  0  0  0
 36 65  1  0  0  0  0
 36 70  1  0  0  0  0
 36 72  1  0  0  0  0
 66 70  1  0  0  0  0
 67 70  1  0  0  0  0
 68 72  1  0  0  0  0
 69 72  1  0  0  0  0
 70 71  1  0  0  0  0
 72 73  1  0  0  0  0
 74 75  1  0  0  0  0
M  CHG  3  70   1  72   1  74   1
M  END
$$$$
ZINC03832369
  -OEChem-08230709403D

 53 56  0     1  0  0  0  0  0999 V2000
    3.8528   -1.7319   -0.0448 C   0  0  0  0  0  0  0  0  0  0  0  0
    3.6924   -0.3545   -0.0355 C   0  0  0  0  0  0  0  0  0  0  0  0
    2.4089    0.1479   -0.0202 C   0  0  0  0  0  0  0  0  0  0  0  0
    1.2787   -0.6995   -0.0139 C   0  0  0  0  0  0  0  0  0  0  0  0
    0.0021   -0.0041    0.0020 C   0  0  0  0  0  0  0  0  0  0  0  0
   -0.0161    1.3383    0.0094 C   0  0  0  0  0  0  0  0  0  0  0  0
    1.7115    1.7781   -0.0047 S   0  0  0  0  0  0  0  0  0  0  0  0
   -1.4146    2.4101    0.0222 S   0  0  0  0  0  0  0  0  0  0  0  0
   -0.9820    3.6486   -0.5241 O   0  0  0  0  0  0  0  0  0  0  0  0
   -2.4972    1.6718   -0.5272 O   0  0  0  0  0  0  0  0  0  0  0  0
   -1.7952    2.6994    1.6077 N   0  0  0  0  0  0  0  0  0  0  0  0
   -0.8568    3.4275    2.4653 C   0  0  1  0  0  0  0  0  0  0  0  0
   -0.1817    4.0340    1.8616 H   0  0  0  0  0  0  0  0  0  0  0  0
   -1.6223    4.3128    3.4759 C   0  0  0  0  0  0  0  0  0  0  0  0
   -1.7059    3.3844    4.7077 C   0  0  0  0  0  0  0  0  0  0  0  0
   -0.5688    2.4649    4.5830 N   0  0  0  0  0  0  0  0  0  0  0  0
   -0.0758    2.4648    3.3325 C   0  0  0  0  0  0  0  0  0  0  0  0
    0.8587    1.7906    2.9542 O   0  0  0  0  0  0  0  0  0  0  0  0
   -0.0392    1.6516    5.6804 C   0  0  0  0  0  0  0  0  0  0  0  0
   -0.7464    0.3211    5.7063 C   0  0  0  0  0  0  0  0  0  0  0  0
   -0.1019   -0.8134    5.2518 C   0  0  0  0  0  0  0  0  0  0  0  0
   -0.7501   -2.0342    5.2753 C   0  0  0  0  0  0  0  0  0  0  0  0
   -2.0445   -2.1234    5.7539 C   0  0  0  0  0  0  0  0  0  0  0  0
   -2.6927   -0.9923    6.2102 C   0  0  0  0  0  0  0  0  0  0  0  0
   -2.0428    0.2334    6.1917 C   0  0  0  0  0  0  0  0  0  0  0  0
   -2.6768    1.3469    6.6445 O   0  0  0  0  0  0  0  0  0  0  0  0
   -0.0452   -3.2699    4.7780 C   0  0  0  0  0  0  0  0  0  0  0  0
    1.5108   -2.0285   -0.0237 N   0  0  0  0  0  0  0  0  0  0  0  0
    2.7191   -2.5306   -0.0383 C   0  0  0  0  0  0  0  0  0  0  0  0
    4.8386   -2.1727   -0.0566 H   0  0  0  0  0  0  0  0  0  0  0  0
    4.5477    0.3049   -0.0398 H   0  0  0  0  0  0  0  0  0  0  0  0
   -0.9227   -0.5619    0.0082 H   0  0  0  0  0  0  0  0  0  0  0  0
   -2.6396    2.3867    1.9686 H   0  0  0  0  0  0  0  0  0  0  0  0
   -1.0595    5.2173    3.7066 H   0  0  0  0  0  0  0  0  0  0  0  0
   -2.6169    4.5588    3.1039 H   0  0  0  0  0  0  0  0  0  0  0  0
   -1.6212    3.9666    5.6253 H   0  0  0  0  0  0  0  0  0  0  0  0
   -2.6441    2.8295    4.6989 H   0  0  0  0  0  0  0  0  0  0  0  0
    1.0289    1.4925    5.5320 H   0  0  0  0  0  0  0  0  0  0  0  0
   -0.2016    2.1679    6.6265 H   0  0  0  0  0  0  0  0  0  0  0  0
    0.9089   -0.7464    4.8775 H   0  0  0  0  0  0  0  0  0  0  0  0
   -2.5487   -3.0783    5.7713 H   0  0  0  0  0  0  0  0  0  0  0  0
   -3.7035   -1.0625    6.5843 H   0  0  0  0  0  0  0  0  0  0  0  0
   -3.1744    1.8204    5.9639 H   0  0  0  0  0  0  0  0  0  0  0  0
    0.4869   -3.7419    5.6040 H   0  0  0  0  0  0  0  0  0  0  0  0
   -1.5832   -3.7746    3.5059 H   0  0  0  0  0  0  0  0  0  0  0  0
   -0.5843   -5.0475    3.8903 H   0  0  0  0  0  0  0  0  0  0  0  0
    1.4435   -3.6999    3.4226 H   0  0  0  0  0  0  0  0  0  0  0  0
    0.4429   -2.4584    2.9500 H   0  0  0  0  0  0  0  0  0  0  0  0
    2.8375   -3.6040   -0.0455 H   0  0  0  0  0  0  0  0  0  0  0  0
   -1.0461   -4.2145    4.2514 N   0  3  0  0  0  0  0  0  0  0  0  0
   -1.6843   -4.4867    5.0083 H   0  0  0  0  0  0  0  0  0  0  0  0
    0.9264   -2.8818    3.7403 N   0  3  0  0  0  0  0  0  0  0  0  0
    1.5861   -2.2004    4.1336 H   0  0  0  0  0  0  0  0  0  0  0  0
  1 29  2  0  0  0  0
  1  2  1  0  0  0  0
  1 30  1  0  0  0  0
  2  3  2  0  0  0  0
  2 31  1  0  0  0  0
  3  7  1  0  0  0  0
  3  4  1  0  0  0  0
  4  5  1  0  0  0  0
  4 28  2  0  0  0  0
  5  6  2  0  0  0  0
  5 32  1  0  0  0  0
  6  7  1  0  0  0  0
  6  8  1  0  0  0  0
  8  9  2  0  0  0  0
  8 10  2  0  0  0  0
  8 11  1  0  0  0  0
 11 12  1  0  0  0  0
 11 33  1  0  0  0  0
 12 13  1  0  0  0  0
 12 17  1  0  0  0  0
 12 14  1  0  0  0  0
 14 15  1  0  0  0  0
 14 34  1  0  0  0  0
 14 35  1  0  0  0  0
 15 16  1  0  0  0  0
 15 36  1  0  0  0  0
 15 37  1  0  0  0  0
 16 17  1  0  0  0  0
 16 19  1  0  0  0  0
 17 18  2  0  0  0  0
 19 20  1  0  0  0  0
 19 38  1  0  0  0  0
 19 39  1  0  0  0  0
 20 25  2  0  0  0  0
 20 21  1  0  0  0  0
 21 22  2  0  0  0  0
 21 40  1  0  0  0  0
 22 23  1  0  0  0  0
 22 27  1  0  0  0  0
 23 24  2  0  0  0  0
 23 41  1  0  0  0  0
 24 25  1  0  0  0  0
 24 42  1  0  0  0  0
 25 26  1  0  0  0  0
 26 43  1  0  0  0  0
 27 44  1  0  0  0  0
 27 50  1  0  0  0  0
 27 52  1  0  0  0  0
 28 29  1  0  0  0  0
 29 49  1  0  0  0  0
 45 50  1  0  0  0  0
 46 50  1  0  0  0  0
 47 52  1  0  0  0  0
 48 52  1  0  0  0  0
 50 51  1  0  0  0  0
 52 53  1  0  0  0  0
M  CHG  2  50   1  52   1
M  END
$$$$
ZINC03832370
  -OEChem-08230709403D

 73 78  0     0  0  0  0  0  0999 V2000
    8.3450    6.3630   -3.5554 H   0  0  0  0  0  0  0  0  0  0  0  0
    8.8605    5.7244   -1.7015 C   0  0  0  0  0  0  0  0  0  0  0  0
   10.0387    5.5407   -0.7802 C   0  0  0  0  0  0  0  0  0  0  0  0
    7.6121    5.3223   -1.3054 N   0  0  0  0  0  0  0  0  0  0  0  0
    7.3844    4.8199    0.0564 C   0  0  0  0  0  0  0  0  0  0  0  0
    6.7111    3.4467   -0.0308 C   0  0  0  0  0  0  0  0  0  0  0  0
    5.4428    3.5578   -0.8800 C   0  0  0  0  0  0  0  0  0  0  0  0
    5.8128    4.0051   -2.2960 C   0  0  0  0  0  0  0  0  0  0  0  0
    6.4756    5.3849   -2.2346 C   0  0  0  0  0  0  0  0  0  0  0  0
    4.7949    2.2854   -0.9367 O   0  0  0  0  0  0  0  0  0  0  0  0
    3.4646    2.2823   -1.2147 C   0  0  0  0  0  0  0  0  0  0  0  0
    2.7860    3.4884   -1.3586 C   0  0  0  0  0  0  0  0  0  0  0  0
    1.4381    3.4951   -1.6407 C   0  0  0  0  0  0  0  0  0  0  0  0
    0.7529    2.2901   -1.7813 C   0  0  0  0  0  0  0  0  0  0  0  0
   -0.6525    1.9524   -2.0740 C   0  0  0  0  0  0  0  0  0  0  0  0
   -1.7925    2.7177   -2.3079 C   0  0  0  0  0  0  0  0  0  0  0  0
   -2.9950    2.0944   -2.5627 C   0  0  0  0  0  0  0  0  0  0  0  0
   -3.0745    0.7103   -2.5770 C   0  0  0  0  0  0  0  0  0  0  0  0
   -1.9551   -0.0588   -2.3423 C   0  0  0  0  0  0  0  0  0  0  0  0
   -0.7310    0.5520   -2.0882 C   0  0  0  0  0  0  0  0  0  0  0  0
    0.5283    0.0418   -1.8248 N   0  0  0  0  0  0  0  0  0  0  0  0
    1.4333    1.0716   -1.6375 C   0  0  0  0  0  0  0  0  0  0  0  0
    2.7948    1.0803   -1.3530 C   0  0  0  0  0  0  0  0  0  0  0  0
    0.8559   -1.3843   -1.7539 C   0  0  0  0  0  0  0  0  0  0  0  0
    1.2589   -1.8758   -3.1203 C   0  0  0  0  0  0  0  0  0  0  0  0
    0.2873   -2.3825   -3.9816 C   0  0  0  0  0  0  0  0  0  0  0  0
    0.6167   -2.8292   -5.2242 C   0  0  0  0  0  0  0  0  0  0  0  0
    1.9574   -2.7913   -5.6438 C   0  0  0  0  0  0  0  0  0  0  0  0
    2.3367   -3.2500   -6.9170 C   0  0  0  0  0  0  0  0  0  0  0  0
    3.6447   -3.1977   -7.2895 C   0  0  0  0  0  0  0  0  0  0  0  0
    4.6171   -2.6959   -6.4262 C   0  0  0  0  0  0  0  0  0  0  0  0
    4.2869   -2.2434   -5.1859 C   0  0  0  0  0  0  0  0  0  0  0  0
    2.9462   -2.2812   -4.7661 C   0  0  0  0  0  0  0  0  0  0  0  0
    2.5669   -1.8232   -3.4926 C   0  0  0  0  0  0  0  0  0  0  0  0
    6.0558   -2.6544   -6.8727 C   0  0  0  0  0  0  0  0  0  0  0  0
   10.1624    4.4815   -0.5551 H   0  0  0  0  0  0  0  0  0  0  0  0
   10.9403    5.9171   -1.2639 H   0  0  0  0  0  0  0  0  0  0  0  0
    9.8660    6.0910    0.1448 H   0  0  0  0  0  0  0  0  0  0  0  0
    6.7372    5.5105    0.5972 H   0  0  0  0  0  0  0  0  0  0  0  0
    8.3370    4.7274    0.5780 H   0  0  0  0  0  0  0  0  0  0  0  0
    6.4496    3.1054    0.9708 H   0  0  0  0  0  0  0  0  0  0  0  0
    7.3957    2.7339   -0.4908 H   0  0  0  0  0  0  0  0  0  0  0  0
    4.7691    4.2887   -0.4327 H   0  0  0  0  0  0  0  0  0  0  0  0
    6.5061    3.2875   -2.7348 H   0  0  0  0  0  0  0  0  0  0  0  0
    4.9119    4.0614   -2.9069 H   0  0  0  0  0  0  0  0  0  0  0  0
    5.7543    6.1215   -1.8805 H   0  0  0  0  0  0  0  0  0  0  0  0
    6.8294    5.6671   -3.2261 H   0  0  0  0  0  0  0  0  0  0  0  0
    3.3179    4.4220   -1.2490 H   0  0  0  0  0  0  0  0  0  0  0  0
    0.9133    4.4323   -1.7527 H   0  0  0  0  0  0  0  0  0  0  0  0
   -1.7327    3.7961   -2.2971 H   0  0  0  0  0  0  0  0  0  0  0  0
   -3.8792    2.6861   -2.7481 H   0  0  0  0  0  0  0  0  0  0  0  0
   -4.0220    0.2306   -2.7737 H   0  0  0  0  0  0  0  0  0  0  0  0
   -2.0281   -1.1362   -2.3559 H   0  0  0  0  0  0  0  0  0  0  0  0
    3.3289    0.1484   -1.2406 H   0  0  0  0  0  0  0  0  0  0  0  0
    1.6803   -1.5334   -1.0564 H   0  0  0  0  0  0  0  0  0  0  0  0
   -0.0160   -1.9408   -1.4101 H   0  0  0  0  0  0  0  0  0  0  0  0
   -0.7430   -2.4170   -3.6596 H   0  0  0  0  0  0  0  0  0  0  0  0
   -0.1474   -3.2159   -5.8822 H   0  0  0  0  0  0  0  0  0  0  0  0
    1.5941   -3.6414   -7.5965 H   0  0  0  0  0  0  0  0  0  0  0  0
    3.9335   -3.5504   -8.2685 H   0  0  0  0  0  0  0  0  0  0  0  0
    5.0512   -1.8577   -4.5275 H   0  0  0  0  0  0  0  0  0  0  0  0
    3.3095   -1.4320   -2.8131 H   0  0  0  0  0  0  0  0  0  0  0  0
    6.5487   -3.5869   -6.5976 H   0  0  0  0  0  0  0  0  0  0  0  0
    5.7052   -3.2759   -8.8038 H   0  0  0  0  0  0  0  0  0  0  0  0
    5.6606   -1.6247   -8.6110 H   0  0  0  0  0  0  0  0  0  0  0  0
    6.6585   -1.5898   -5.2168 H   0  0  0  0  0  0  0  0  0  0  0  0
    7.7057   -1.4793   -6.5041 H   0  0  0  0  0  0  0  0  0  0  0  0
    9.0953    6.2815   -2.8690 N   0  3  0  0  0  0  0  0  0  0  0  0
   10.0338    6.6346   -3.0899 H   0  0  0  0  0  0  0  0  0  0  0  0
    6.1364   -2.4817   -8.3339 N   0  3  0  0  0  0  0  0  0  0  0  0
    7.1228   -2.4224   -8.6128 H   0  0  0  0  0  0  0  0  0  0  0  0
    6.7250   -1.5095   -6.2301 N   0  3  0  0  0  0  0  0  0  0  0  0
    6.2670   -0.6402   -6.5280 H   0  0  0  0  0  0  0  0  0  0  0  0
  1 68  1  0  0  0  0
  2  3  1  0  0  0  0
  2  4  1  0  0  0  0
  2 68  2  0  0  0  0
  3 36  1  0  0  0  0
  3 37  1  0  0  0  0
  3 38  1  0  0  0  0
  4  9  1  0  0  0  0
  4  5  1  0  0  0  0
  5  6  1  0  0  0  0
  5 39  1  0  0  0  0
  5 40  1  0  0  0  0
  6  7  1  0  0  0  0
  6 41  1  0  0  0  0
  6 42  1  0  0  0  0
  7  8  1  0  0  0  0
  7 10  1  0  0  0  0
  7 43  1  0  0  0  0
  8  9  1  0  0  0  0
  8 44  1  0  0  0  0
  8 45  1  0  0  0  0
  9 46  1  0  0  0  0
  9 47  1  0  0  0  0
 10 11  1  0  0  0  0
 11 23  2  0  0  0  0
 11 12  1  0  0  0  0
 12 13  2  0  0  0  0
 12 48  1  0  0  0  0
 13 14  1  0  0  0  0
 13 49  1  0  0  0  0
 14 22  2  0  0  0  0
 14 15  1  0  0  0  0
 15 20  2  0  0  0  0
 15 16  1  0  0  0  0
 16 17  2  0  0  0  0
 16 50  1  0  0  0  0
 17 18  1  0  0  0  0
 17 51  1  0  0  0  0
 18 19  2  0  0  0  0
 18 52  1  0  0  0  0
 19 20  1  0  0  0  0
 19 53  1  0  0  0  0
 20 21  1  0  0  0  0
 21 22  1  0  0  0  0
 21 24  1  0  0  0  0
 22 23  1  0  0  0  0
 23 54  1  0  0  0  0
 24 25  1  0  0  0  0
 24 55  1  0  0  0  0
 24 56  1  0  0  0  0
 25 34  2  0  0  0  0
 25 26  1  0  0  0  0
 26 27  2  0  0  0  0
 26 57  1  0  0  0  0
 27 28  1  0  0  0  0
 27 58  1  0  0  0  0
 28 33  2  0  0  0  0
 28 29  1  0  0  0  0
 29 30  2  0  0  0  0
 29 59  1  0  0  0  0
 30 31  1  0  0  0  0
 30 60  1  0  0  0  0
 31 32  2  0  0  0  0
 31 35  1  0  0  0  0
 32 33  1  0  0  0  0
 32 61  1  0  0  0  0
 33 34  1  0  0  0  0
 34 62  1  0  0  0  0
 35 63  1  0  0  0  0
 35 70  1  0  0  0  0
 35 72  1  0  0  0  0
 64 70  1  0  0  0  0
 65 70  1  0  0  0  0
 66 72  1  0  0  0  0
 67 72  1  0  0  0  0
 68 69  1  0  0  0  0
 70 71  1  0  0  0  0
 72 73  1  0  0  0  0
M  CHG  3  68   1  70   1  72   1
M  END
$$$$
ZINC03832371
  -OEChem-08230709403D

 74 78  0     0  0  0  0  0  0999 V2000
   -1.5641   10.8984    8.8488 C   0  0  0  0  0  0  0  0  0  0  0  0
   -0.8601    9.7671    8.0968 C   0  0  0  0  0  0  0  0  0  0  0  0
   -1.3507    8.4878    8.5773 O   0  0  0  0  0  0  0  0  0  0  0  0
   -0.8301    7.3855    8.0155 C   0  0  0  0  0  0  0  0  0  0  0  0
    0.0079    7.4863    7.1509 O   0  0  0  0  0  0  0  0  0  0  0  0
   -1.2907    6.0223    8.4632 C   0  0  0  0  0  0  0  0  0  0  0  0
   -0.5951    5.0174    7.7226 O   0  0  0  0  0  0  0  0  0  0  0  0
   -0.9568    3.6929    8.0687 N   0  0  0  0  0  0  0  0  0  0  0  0
   -0.3980    2.6927    7.4696 C   0  0  0  0  0  0  0  0  0  0  0  0
   -0.8741    1.3181    7.7264 C   0  0  0  0  0  0  0  0  0  0  0  0
   -1.8515    1.0941    8.6966 C   0  0  0  0  0  0  0  0  0  0  0  0
   -2.2905   -0.1991    8.9221 C   0  0  0  0  0  0  0  0  0  0  0  0
   -1.7310   -1.2280    8.1780 C   0  0  0  0  0  0  0  0  0  0  0  0
   -0.7616   -0.9349    7.2351 C   0  0  0  0  0  0  0  0  0  0  0  0
   -0.3645    0.3045    7.0359 N   0  0  0  0  0  0  0  0  0  0  0  0
    0.7391    2.9292    6.5093 C   0  0  0  0  0  0  0  0  0  0  0  0
    1.6756    4.1039    6.7988 C   0  0  0  0  0  0  0  0  0  0  0  0
    2.1585    2.6678    7.0170 C   0  0  0  0  0  0  0  0  0  0  0  0
    0.4471    2.6116    5.0654 C   0  0  0  0  0  0  0  0  0  0  0  0
    1.4756    2.1946    4.2322 C   0  0  0  0  0  0  0  0  0  0  0  0
    1.2267    1.8999    2.9087 C   0  0  0  0  0  0  0  0  0  0  0  0
   -0.0623    2.0216    2.4078 C   0  0  0  0  0  0  0  0  0  0  0  0
   -1.1033    2.4438    3.2517 C   0  0  0  0  0  0  0  0  0  0  0  0
   -0.8273    2.7375    4.5898 C   0  0  0  0  0  0  0  0  0  0  0  0
   -2.2346    2.4708    2.5013 N   0  0  0  0  0  0  0  0  0  0  0  0
   -1.9598    2.1069    1.2827 C   0  0  0  0  0  0  0  0  0  0  0  0
   -0.6363    1.8133    1.1696 N   0  0  0  0  0  0  0  0  0  0  0  0
    0.0532    1.3653   -0.0428 C   0  0  0  0  0  0  0  0  0  0  0  0
   -2.9622    2.0203    0.1607 C   0  0  0  0  0  0  0  0  0  0  0  0
   -3.5498    0.6785    0.1333 N   0  0  0  0  0  0  0  0  0  0  0  0
   -4.5117    0.3568   -0.8269 C   0  0  0  0  0  0  0  0  0  0  0  0
   -4.9167    1.3097   -1.7530 C   0  0  0  0  0  0  0  0  0  0  0  0
   -5.8646    0.9869   -2.7041 C   0  0  0  0  0  0  0  0  0  0  0  0
   -6.4181   -0.2801   -2.7285 C   0  0  0  0  0  0  0  0  0  0  0  0
   -6.0211   -1.2295   -1.8048 C   0  0  0  0  0  0  0  0  0  0  0  0
   -5.0698   -0.9149   -0.8543 C   0  0  0  0  0  0  0  0  0  0  0  0
   -7.4561   -0.6272   -3.7645 C   0  0  0  0  0  0  0  0  0  0  0  0
   -2.6388   10.8343    8.6785 H   0  0  0  0  0  0  0  0  0  0  0  0
   -1.3592   10.8082    9.9155 H   0  0  0  0  0  0  0  0  0  0  0  0
   -1.1957   11.8588    8.4880 H   0  0  0  0  0  0  0  0  0  0  0  0
    0.2146    9.8313    8.2670 H   0  0  0  0  0  0  0  0  0  0  0  0
   -1.0650    9.8574    7.0300 H   0  0  0  0  0  0  0  0  0  0  0  0
   -2.3623    5.9255    8.2891 H   0  0  0  0  0  0  0  0  0  0  0  0
   -1.0828    5.8994    9.5261 H   0  0  0  0  0  0  0  0  0  0  0  0
   -2.2624    1.9183    9.2607 H   0  0  0  0  0  0  0  0  0  0  0  0
   -3.0487   -0.4032    9.6637 H   0  0  0  0  0  0  0  0  0  0  0  0
   -2.0496   -2.2482    8.3330 H   0  0  0  0  0  0  0  0  0  0  0  0
   -0.3248   -1.7339    6.6544 H   0  0  0  0  0  0  0  0  0  0  0  0
    2.0805    4.6470    5.9450 H   0  0  0  0  0  0  0  0  0  0  0  0
    1.4695    4.7055    7.6841 H   0  0  0  0  0  0  0  0  0  0  0  0
    2.2700    2.3252    8.0457 H   0  0  0  0  0  0  0  0  0  0  0  0
    2.8811    2.2662    6.3067 H   0  0  0  0  0  0  0  0  0  0  0  0
    2.4778    2.1001    4.6234 H   0  0  0  0  0  0  0  0  0  0  0  0
    2.0308    1.5762    2.2645 H   0  0  0  0  0  0  0  0  0  0  0  0
   -1.6201    3.0635    5.2467 H   0  0  0  0  0  0  0  0  0  0  0  0
    0.0336    0.2765   -0.0906 H   0  0  0  0  0  0  0  0  0  0  0  0
    1.0872    1.7094   -0.0210 H   0  0  0  0  0  0  0  0  0  0  0  0
   -0.4482    1.7765   -0.9189 H   0  0  0  0  0  0  0  0  0  0  0  0
   -3.7488    2.7582    0.3185 H   0  0  0  0  0  0  0  0  0  0  0  0
   -2.4636    2.2180   -0.7881 H   0  0  0  0  0  0  0  0  0  0  0  0
   -3.2707    0.0135    0.7820 H   0  0  0  0  0  0  0  0  0  0  0  0
   -4.4880    2.3008   -1.7316 H   0  0  0  0  0  0  0  0  0  0  0  0
   -6.1769    1.7260   -3.4270 H   0  0  0  0  0  0  0  0  0  0  0  0
   -6.4552   -2.2182   -1.8268 H   0  0  0  0  0  0  0  0  0  0  0  0
   -4.7599   -1.6569   -0.1333 H   0  0  0  0  0  0  0  0  0  0  0  0
   -8.4484   -0.3994   -3.3752 H   0  0  0  0  0  0  0  0  0  0  0  0
   -6.3009   -0.0343   -5.3622 H   0  0  0  0  0  0  0  0  0  0  0  0
   -7.9353   -0.0075   -5.6684 H   0  0  0  0  0  0  0  0  0  0  0  0
   -7.4696   -2.6204   -3.2493 H   0  0  0  0  0  0  0  0  0  0  0  0
   -8.0579   -2.3169   -4.7750 H   0  0  0  0  0  0  0  0  0  0  0  0
   -7.2165    0.1826   -4.9721 N   0  3  0  0  0  0  0  0  0  0  0  0
   -7.2470    1.1781   -4.7224 H   0  0  0  0  0  0  0  0  0  0  0  0
   -7.3479   -2.0600   -4.0912 N   0  3  0  0  0  0  0  0  0  0  0  0
   -6.4189   -2.2468   -4.4866 H   0  0  0  0  0  0  0  0  0  0  0  0
  1  2  1  0  0  0  0
  1 38  1  0  0  0  0
  1 39  1  0  0  0  0
  1 40  1  0  0  0  0
  2  3  1  0  0  0  0
  2 41  1  0  0  0  0
  2 42  1  0  0  0  0
  3  4  1  0  0  0  0
  4  5  2  0  0  0  0
  4  6  1  0  0  0  0
  6  7  1  0  0  0  0
  6 43  1  0  0  0  0
  6 44  1  0  0  0  0
  7  8  1  0  0  0  0
  8  9  2  0  0  0  0
  9 10  1  0  0  0  0
  9 16  1  0  0  0  0
 10 15  2  0  0  0  0
 10 11  1  0  0  0  0
 11 12  2  0  0  0  0
 11 45  1  0  0  0  0
 12 13  1  0  0  0  0
 12 46  1  0  0  0  0
 13 14  2  0  0  0  0
 13 47  1  0  0  0  0
 14 15  1  0  0  0  0
 14 48  1  0  0  0  0
 16 18  1  0  0  0  0
 16 17  1  0  0  0  0
 16 19  1  0  0  0  0
 17 18  1  0  0  0  0
 17 49  1  0  0  0  0
 17 50  1  0  0  0  0
 18 51  1  0  0  0  0
 18 52  1  0  0  0  0
 19 24  2  0  0  0  0
 19 20  1  0  0  0  0
 20 21  2  0  0  0  0
 20 53  1  0  0  0  0
 21 22  1  0  0  0  0
 21 54  1  0  0  0  0
 22 27  1  0  0  0  0
 22 23  2  0  0  0  0
 23 24  1  0  0  0  0
 23 25  1  0  0  0  0
 24 55  1  0  0  0  0
 25 26  2  0  0  0  0
 26 27  1  0  0  0  0
 26 29  1  0  0  0  0
 27 28  1  0  0  0  0
 28 56  1  0  0  0  0
 28 57  1  0  0  0  0
 28 58  1  0  0  0  0
 29 30  1  0  0  0  0
 29 59  1  0  0  0  0
 29 60  1  0  0  0  0
 30 31  1  0  0  0  0
 30 61  1  0  0  0  0
 31 36  2  0  0  0  0
 31 32  1  0  0  0  0
 32 33  2  0  0  0  0
 32 62  1  0  0  0  0
 33 34  1  0  0  0  0
 33 63  1  0  0  0  0
 34 35  2  0  0  0  0
 34 37  1  0  0  0  0
 35 36  1  0  0  0  0
 35 64  1  0  0  0  0
 36 65  1  0  0  0  0
 37 66  1  0  0  0  0
 37 71  1  0  0  0  0
 37 73  1  0  0  0  0
 67 71  1  0  0  0  0
 68 71  1  0  0  0  0
 69 73  1  0  0  0  0
 70 73  1  0  0  0  0
 71 72  1  0  0  0  0
 73 74  1  0  0  0  0
M  CHG  2  71   1  73   1
M  END
$$$$
ZINC03834111
  -OEChem-08230709403D

 72 75  0     1  0  0  0  0  0999 V2000
    1.1211   -0.0482    1.5330 C   0  0  0  0  0  0  0  0  0  0  0  0
   -0.1769    0.4517    1.4452 C   0  0  0  0  0  0  0  0  0  0  0  0
   -0.4047    1.7766    1.2337 C   0  0  0  0  0  0  0  0  0  0  0  0
    0.6830    2.6551    1.0914 C   0  0  0  0  0  0  0  0  0  0  0  0
    0.4873    4.0286    0.8669 C   0  0  0  0  0  0  0  0  0  0  0  0
    1.5647    4.8493    0.7336 C   0  0  0  0  0  0  0  0  0  0  0  0
    2.8628    4.3485    0.8157 C   0  0  0  0  0  0  0  0  0  0  0  0
    3.0906    3.0243    1.0321 C   0  0  0  0  0  0  0  0  0  0  0  0
    2.0029    2.1459    1.1753 C   0  0  0  0  0  0  0  0  0  0  0  0
    2.1986    0.7725    1.3997 C   0  0  0  0  0  0  0  0  0  0  0  0
    1.3148    6.5706    0.4523 S   0  0  0  0  0  0  0  0  0  0  0  0
    2.4903    7.0530   -0.1839 O   0  0  0  0  0  0  0  0  0  0  0  0
    0.0248    6.7042   -0.1285 O   0  0  0  0  0  0  0  0  0  0  0  0
    1.2444    7.3039    1.9354 N   0  0  0  0  0  0  0  0  0  0  0  0
    2.4240    7.3145    2.8041 C   0  0  0  0  0  0  0  0  0  0  0  0
    2.2319    8.3311    3.8998 C   0  0  0  0  0  0  0  0  0  0  0  0
    1.2102    8.9826    3.9502 O   0  0  0  0  0  0  0  0  0  0  0  0
    3.1954    8.5163    4.8238 N   0  0  0  0  0  0  0  0  0  0  0  0
    3.0086    9.5045    5.8890 C   0  0  2  0  0  0  0  0  0  0  0  0
    2.4521   10.3572    5.5000 H   0  0  0  0  0  0  0  0  0  0  0  0
    4.3743    9.9742    6.3942 C   0  0  0  0  0  0  0  0  0  0  0  0
    5.0830   10.7281    5.2986 C   0  0  0  0  0  0  0  0  0  0  0  0
    5.9056   10.0536    4.4158 C   0  0  0  0  0  0  0  0  0  0  0  0
    6.5523   10.7445    3.4082 C   0  0  0  0  0  0  0  0  0  0  0  0
    6.3835   12.1113    3.2888 C   0  0  0  0  0  0  0  0  0  0  0  0
    5.5650   12.7866    4.1747 C   0  0  0  0  0  0  0  0  0  0  0  0
    4.9149   12.0951    5.1797 C   0  0  0  0  0  0  0  0  0  0  0  0
    7.0914   12.8650    2.1925 C   0  0  0  0  0  0  0  0  0  0  0  0
    2.2406    8.8795    7.0251 C   0  0  0  0  0  0  0  0  0  0  0  0
    2.2359    7.6746    7.1634 O   0  0  0  0  0  0  0  0  0  0  0  0
    1.5589    9.6595    7.8873 N   0  0  0  0  0  0  0  0  0  0  0  0
    1.4725   11.1109    7.6761 C   0  0  0  0  0  0  0  0  0  0  0  0
   -0.0086   11.5188    7.6869 C   0  0  0  0  0  0  0  0  0  0  0  0
   -0.6559   11.0334    8.9859 C   0  0  0  0  0  0  0  0  0  0  0  0
   -0.5766    9.5067    9.0579 C   0  0  0  0  0  0  0  0  0  0  0  0
    0.8933    9.0753    9.0596 C   0  0  0  0  0  0  0  0  0  0  0  0
    1.2743   -1.1034    1.7050 H   0  0  0  0  0  0  0  0  0  0  0  0
   -1.0146   -0.2220    1.5502 H   0  0  0  0  0  0  0  0  0  0  0  0
   -1.4161    2.1505    1.1720 H   0  0  0  0  0  0  0  0  0  0  0  0
   -0.5129    4.4307    0.8010 H   0  0  0  0  0  0  0  0  0  0  0  0
    3.7004    5.0214    0.7063 H   0  0  0  0  0  0  0  0  0  0  0  0
    4.1020    2.6505    1.0939 H   0  0  0  0  0  0  0  0  0  0  0  0
    3.1987    0.3703    1.4657 H   0  0  0  0  0  0  0  0  0  0  0  0
    0.4221    7.7265    2.2290 H   0  0  0  0  0  0  0  0  0  0  0  0
    2.5597    6.3268    3.2445 H   0  0  0  0  0  0  0  0  0  0  0  0
    3.3050    7.5749    2.2173 H   0  0  0  0  0  0  0  0  0  0  0  0
    4.0126    7.9952    4.7835 H   0  0  0  0  0  0  0  0  0  0  0  0
    4.2378   10.6280    7.2556 H   0  0  0  0  0  0  0  0  0  0  0  0
    4.9711    9.1097    6.6851 H   0  0  0  0  0  0  0  0  0  0  0  0
    6.0405    8.9863    4.5114 H   0  0  0  0  0  0  0  0  0  0  0  0
    7.1915   10.2168    2.7158 H   0  0  0  0  0  0  0  0  0  0  0  0
    5.4331   13.8545    4.0814 H   0  0  0  0  0  0  0  0  0  0  0  0
    4.2754   12.6227    5.8719 H   0  0  0  0  0  0  0  0  0  0  0  0
    8.0642   13.2006    2.5520 H   0  0  0  0  0  0  0  0  0  0  0  0
    6.3876   11.6585    0.6801 H   0  0  0  0  0  0  0  0  0  0  0  0
    7.8049   12.4449    0.3076 H   0  0  0  0  0  0  0  0  0  0  0  0
    6.0908   14.6186    2.5952 H   0  0  0  0  0  0  0  0  0  0  0  0
    6.7398   14.5516    1.0654 H   0  0  0  0  0  0  0  0  0  0  0  0
    2.0028   11.6286    8.4754 H   0  0  0  0  0  0  0  0  0  0  0  0
    1.9166   11.3673    6.7143 H   0  0  0  0  0  0  0  0  0  0  0  0
   -0.5188   11.0682    6.8356 H   0  0  0  0  0  0  0  0  0  0  0  0
   -0.0862   12.6043    7.6253 H   0  0  0  0  0  0  0  0  0  0  0  0
   -1.7004   11.3443    9.0094 H   0  0  0  0  0  0  0  0  0  0  0  0
   -0.1294   11.4649    9.8372 H   0  0  0  0  0  0  0  0  0  0  0  0
   -1.0815    9.0751    8.1937 H   0  0  0  0  0  0  0  0  0  0  0  0
   -1.0586    9.1601    9.9721 H   0  0  0  0  0  0  0  0  0  0  0  0
    0.9550    7.9881    9.0109 H   0  0  0  0  0  0  0  0  0  0  0  0
    1.3773    9.4304    9.9694 H   0  0  0  0  0  0  0  0  0  0  0  0
    7.2889   11.9646    1.0429 N   0  3  0  0  0  0  0  0  0  0  0  0
    7.8246   11.1427    1.3461 H   0  0  0  0  0  0  0  0  0  0  0  0
    6.2653   14.0175    1.7915 N   0  3  0  0  0  0  0  0  0  0  0  0
    5.3678   13.6784    1.4257 H   0  0  0  0  0  0  0  0  0  0  0  0
  1 10  2  0  0  0  0
  1  2  1  0  0  0  0
  1 37  1  0  0  0  0
  2  3  2  0  0  0  0
  2 38  1  0  0  0  0
  3  4  1  0  0  0  0
  3 39  1  0  0  0  0
  4  9  2  0  0  0  0
  4  5  1  0  0  0  0
  5  6  2  0  0  0  0
  5 40  1  0  0  0  0
  6  7  1  0  0  0  0
  6 11  1  0  0  0  0
  7  8  2  0  0  0  0
  7 41  1  0  0  0  0
  8  9  1  0  0  0  0
  8 42  1  0  0  0  0
  9 10  1  0  0  0  0
 10 43  1  0  0  0  0
 11 12  2  0  0  0  0
 11 13  2  0  0  0  0
 11 14  1  0  0  0  0
 14 15  1  0  0  0  0
 14 44  1  0  0  0  0
 15 16  1  0  0  0  0
 15 45  1  0  0  0  0
 15 46  1  0  0  0  0
 16 17  2  0  0  0  0
 16 18  1  0  0  0  0
 18 19  1  0  0  0  0
 18 47  1  0  0  0  0
 19 20  1  0  0  0  0
 19 21  1  0  0  0  0
 19 29  1  0  0  0  0
 21 22  1  0  0  0  0
 21 48  1  0  0  0  0
 21 49  1  0  0  0  0
 22 27  2  0  0  0  0
 22 23  1  0  0  0  0
 23 24  2  0  0  0  0
 23 50  1  0  0  0  0
 24 25  1  0  0  0  0
 24 51  1  0  0  0  0
 25 26  2  0  0  0  0
 25 28  1  0  0  0  0
 26 27  1  0  0  0  0
 26 52  1  0  0  0  0
 27 53  1  0  0  0  0
 28 54  1  0  0  0  0
 28 69  1  0  0  0  0
 28 71  1  0  0  0  0
 29 30  2  0  0  0  0
 29 31  1  0  0  0  0
 31 36  1  0  0  0  0
 31 32  1  0  0  0  0
 32 33  1  0  0  0  0
 32 59  1  0  0  0  0
 32 60  1  0  0  0  0
 33 34  1  0  0  0  0
 33 61  1  0  0  0  0
 33 62  1  0  0  0  0
 34 35  1  0  0  0  0
 34 63  1  0  0  0  0
 34 64  1  0  0  0  0
 35 36  1  0  0  0  0
 35 65  1  0  0  0  0
 35 66  1  0  0  0  0
 36 67  1  0  0  0  0
 36 68  1  0  0  0  0
 55 69  1  0  0  0  0
 56 69  1  0  0  0  0
 57 71  1  0  0  0  0
 58 71  1  0  0  0  0
 69 70  1  0  0  0  0
 71 72  1  0  0  0  0
M  CHG  2  69   1  71   1
M  END
$$$$
ZINC03834116
  -OEChem-08230709403D

 75 78  0     1  0  0  0  0  0999 V2000
   -0.1304   -2.7733   11.5893 H   0  0  0  0  0  0  0  0  0  0  0  0
    0.7749   -1.0041   11.1484 C   0  0  0  0  0  0  0  0  0  0  0  0
    1.6733   -0.3509   10.1691 C   0  0  0  0  0  0  0  0  0  0  0  0
    2.0217    0.9906   10.3245 C   0  0  0  0  0  0  0  0  0  0  0  0
    2.8596    1.5934    9.4090 C   0  0  0  0  0  0  0  0  0  0  0  0
    3.3585    0.8682    8.3415 C   0  0  0  0  0  0  0  0  0  0  0  0
    3.0119   -0.4609    8.1787 C   0  0  0  0  0  0  0  0  0  0  0  0
    2.1747   -1.0749    9.0879 C   0  0  0  0  0  0  0  0  0  0  0  0
    3.5548   -1.2417    7.0097 C   0  0  0  0  0  0  0  0  0  0  0  0
    2.5958   -1.1177    5.8240 C   0  0  1  0  0  0  0  0  0  0  0  0
    2.4393   -0.0641    5.5921 H   0  0  0  0  0  0  0  0  0  0  0  0
    3.1867   -1.8135    4.6250 C   0  0  0  0  0  0  0  0  0  0  0  0
    2.7652   -2.8988    4.2851 O   0  0  0  0  0  0  0  0  0  0  0  0
    4.1834   -1.2299    3.9304 N   0  0  0  0  0  0  0  0  0  0  0  0
    4.6797   -1.8323    2.6852 C   0  0  0  0  0  0  0  0  0  0  0  0
    4.5870   -0.7806    1.5666 C   0  0  0  0  0  0  0  0  0  0  0  0
    5.2011    0.4663    2.0441 N   0  0  0  0  0  0  0  0  0  0  0  0
    4.7085    1.0657    3.2923 C   0  0  0  0  0  0  0  0  0  0  0  0
    4.7974    0.0170    4.4080 C   0  0  0  0  0  0  0  0  0  0  0  0
    6.4257    1.1835    1.1907 S   0  0  0  0  0  0  0  0  0  0  0  0
    6.2300    0.7583   -0.1510 O   0  0  0  0  0  0  0  0  0  0  0  0
    6.3482    2.5604    1.5330 O   0  0  0  0  0  0  0  0  0  0  0  0
    7.9475    0.4579    1.8604 C   0  0  0  0  0  0  0  0  0  0  0  0
    1.3135   -1.7382    6.1661 N   0  0  0  0  0  0  0  0  0  0  0  0
   -0.0671   -0.8240    6.1954 S   0  0  0  0  0  0  0  0  0  0  0  0
    0.2255    0.3286    6.9731 O   0  0  0  0  0  0  0  0  0  0  0  0
   -1.1328   -1.7081    6.5146 O   0  0  0  0  0  0  0  0  0  0  0  0
   -0.3547   -0.2619    4.5504 C   0  0  0  0  0  0  0  0  0  0  0  0
   -0.3136    1.0687    4.2650 C   0  0  0  0  0  0  0  0  0  0  0  0
   -0.5384    1.5315    2.9706 C   0  0  0  0  0  0  0  0  0  0  0  0
   -0.8053    0.6658    1.9535 C   0  0  0  0  0  0  0  0  0  0  0  0
   -0.8494   -0.7133    2.2088 C   0  0  0  0  0  0  0  0  0  0  0  0
   -0.6271   -1.1847    3.5261 C   0  0  0  0  0  0  0  0  0  0  0  0
   -0.6777   -2.5655    3.7846 C   0  0  0  0  0  0  0  0  0  0  0  0
   -0.9444   -3.4370    2.7733 C   0  0  0  0  0  0  0  0  0  0  0  0
   -1.1703   -2.9857    1.4761 C   0  0  0  0  0  0  0  0  0  0  0  0
   -1.1296   -1.6398    1.1810 C   0  0  0  0  0  0  0  0  0  0  0  0
   -1.3571   -1.1983   -0.1206 N   0  0  0  0  0  0  0  0  0  0  0  0
   -2.6935   -1.5940   -0.5846 C   0  0  0  0  0  0  0  0  0  0  0  0
   -0.3161   -1.6903   -1.0329 C   0  0  0  0  0  0  0  0  0  0  0  0
    0.2809   -0.2862   12.2157 N   0  0  0  0  0  0  0  0  0  0  0  0
    1.6368    1.5563   11.1602 H   0  0  0  0  0  0  0  0  0  0  0  0
    3.1299    2.6322    9.5282 H   0  0  0  0  0  0  0  0  0  0  0  0
    4.0176    1.3433    7.6298 H   0  0  0  0  0  0  0  0  0  0  0  0
    1.9081   -2.1138    8.9620 H   0  0  0  0  0  0  0  0  0  0  0  0
    3.6542   -2.2909    7.2883 H   0  0  0  0  0  0  0  0  0  0  0  0
    4.5311   -0.8460    6.7302 H   0  0  0  0  0  0  0  0  0  0  0  0
    5.7170   -2.1405    2.8161 H   0  0  0  0  0  0  0  0  0  0  0  0
    4.0682   -2.6971    2.4280 H   0  0  0  0  0  0  0  0  0  0  0  0
    3.5416   -0.6009    1.3159 H   0  0  0  0  0  0  0  0  0  0  0  0
    5.1191   -1.1358    0.6840 H   0  0  0  0  0  0  0  0  0  0  0  0
    3.6717    1.3768    3.1644 H   0  0  0  0  0  0  0  0  0  0  0  0
    5.3201    1.9295    3.5527 H   0  0  0  0  0  0  0  0  0  0  0  0
    4.2634    0.3738    5.2888 H   0  0  0  0  0  0  0  0  0  0  0  0
    5.8428   -0.1627    4.6587 H   0  0  0  0  0  0  0  0  0  0  0  0
    7.9311   -0.6218    1.7120 H   0  0  0  0  0  0  0  0  0  0  0  0
    8.8095    0.8824    1.3457 H   0  0  0  0  0  0  0  0  0  0  0  0
    8.0163    0.6773    2.9258 H   0  0  0  0  0  0  0  0  0  0  0  0
    1.2731   -2.6845    6.3754 H   0  0  0  0  0  0  0  0  0  0  0  0
   -0.1040    1.7757    5.0540 H   0  0  0  0  0  0  0  0  0  0  0  0
   -0.5002    2.5921    2.7704 H   0  0  0  0  0  0  0  0  0  0  0  0
   -0.9780    1.0386    0.9548 H   0  0  0  0  0  0  0  0  0  0  0  0
   -0.5048   -2.9347    4.7846 H   0  0  0  0  0  0  0  0  0  0  0  0
   -0.9809   -4.4962    2.9809 H   0  0  0  0  0  0  0  0  0  0  0  0
   -1.3801   -3.6981    0.6919 H   0  0  0  0  0  0  0  0  0  0  0  0
   -3.4490   -1.1583    0.0692 H   0  0  0  0  0  0  0  0  0  0  0  0
   -2.7784   -2.6805   -0.5642 H   0  0  0  0  0  0  0  0  0  0  0  0
   -2.8450   -1.2368   -1.6032 H   0  0  0  0  0  0  0  0  0  0  0  0
   -0.4781   -1.2742   -2.0272 H   0  0  0  0  0  0  0  0  0  0  0  0
    0.6633   -1.3835   -0.6659 H   0  0  0  0  0  0  0  0  0  0  0  0
   -0.3610   -2.7782   -1.0826 H   0  0  0  0  0  0  0  0  0  0  0  0
    0.5218    0.6470   12.3255 H   0  0  0  0  0  0  0  0  0  0  0  0
   -0.3076   -0.7139   12.8572 H   0  0  0  0  0  0  0  0  0  0  0  0
    0.4843   -2.2793   10.9423 N   0  3  0  0  0  0  0  0  0  0  0  0
    0.8777   -2.7709   10.1313 H   0  0  0  0  0  0  0  0  0  0  0  0
  1 74  1  0  0  0  0
  2  3  1  0  0  0  0
  2 41  1  0  0  0  0
  2 74  2  0  0  0  0
  3  8  2  0  0  0  0
  3  4  1  0  0  0  0
  4  5  2  0  0  0  0
  4 42  1  0  0  0  0
  5  6  1  0  0  0  0
  5 43  1  0  0  0  0
  6  7  2  0  0  0  0
  6 44  1  0  0  0  0
  7  8  1  0  0  0  0
  7  9  1  0  0  0  0
  8 45  1  0  0  0  0
  9 10  1  0  0  0  0
  9 46  1  0  0  0  0
  9 47  1  0  0  0  0
 10 11  1  0  0  0  0
 10 12  1  0  0  0  0
 10 24  1  0  0  0  0
 12 13  2  0  0  0  0
 12 14  1  0  0  0  0
 14 19  1  0  0  0  0
 14 15  1  0  0  0  0
 15 16  1  0  0  0  0
 15 48  1  0  0  0  0
 15 49  1  0  0  0  0
 16 17  1  0  0  0  0
 16 50  1  0  0  0  0
 16 51  1  0  0  0  0
 17 18  1  0  0  0  0
 17 20  1  0  0  0  0
 18 19  1  0  0  0  0
 18 52  1  0  0  0  0
 18 53  1  0  0  0  0
 19 54  1  0  0  0  0
 19 55  1  0  0  0  0
 20 21  2  0  0  0  0
 20 22  2  0  0  0  0
 20 23  1  0  0  0  0
 23 56  1  0  0  0  0
 23 57  1  0  0  0  0
 23 58  1  0  0  0  0
 24 25  1  0  0  0  0
 24 59  1  0  0  0  0
 25 26  2  0  0  0  0
 25 27  2  0  0  0  0
 25 28  1  0  0  0  0
 28 33  2  0  0  0  0
 28 29  1  0  0  0  0
 29 30  2  0  0  0  0
 29 60  1  0  0  0  0
 30 31  1  0  0  0  0
 30 61  1  0  0  0  0
 31 32  2  0  0  0  0
 31 62  1  0  0  0  0
 32 37  1  0  0  0  0
 32 33  1  0  0  0  0
 33 34  1  0  0  0  0
 34 35  2  0  0  0  0
 34 63  1  0  0  0  0
 35 36  1  0  0  0  0
 35 64  1  0  0  0  0
 36 37  2  0  0  0  0
 36 65  1  0  0  0  0
 37 38  1  0  0  0  0
 38 39  1  0  0  0  0
 38 40  1  0  0  0  0
 39 66  1  0  0  0  0
 39 67  1  0  0  0  0
 39 68  1  0  0  0  0
 40 69  1  0  0  0  0
 40 70  1  0  0  0  0
 40 71  1  0  0  0  0
 41 72  1  0  0  0  0
 41 73  1  0  0  0  0
 74 75  1  0  0  0  0
M  CHG  1  74   1
M  END
$$$$
ZINC03834117
  -OEChem-08230709403D

 73 75  0     1  0  0  0  0  0999 V2000
    4.5191    2.4725    0.7082 H   0  0  0  0  0  0  0  0  0  0  0  0
    2.5256    2.7270    0.3831 C   0  0  0  0  0  0  0  0  0  0  0  0
    1.2652    1.9862    0.1478 C   0  0  0  0  0  0  0  0  0  0  0  0
    0.0681    2.6797   -0.0301 C   0  0  0  0  0  0  0  0  0  0  0  0
   -1.1030    1.9838   -0.2490 C   0  0  0  0  0  0  0  0  0  0  0  0
   -1.0916    0.6009   -0.2923 C   0  0  0  0  0  0  0  0  0  0  0  0
    0.0924   -0.0924   -0.1170 C   0  0  0  0  0  0  0  0  0  0  0  0
    1.2703    0.5925    0.1026 C   0  0  0  0  0  0  0  0  0  0  0  0
    0.0963   -1.5985   -0.1666 C   0  0  0  0  0  0  0  0  0  0  0  0
    0.3358   -2.0608   -1.6053 C   0  0  1  0  0  0  0  0  0  0  0  0
    1.3125   -1.7125   -1.9410 H   0  0  0  0  0  0  0  0  0  0  0  0
    0.2922   -3.5661   -1.6630 C   0  0  0  0  0  0  0  0  0  0  0  0
   -0.6276   -4.1252   -2.2217 O   0  0  0  0  0  0  0  0  0  0  0  0
    1.2755   -4.2911   -1.0937 N   0  0  0  0  0  0  0  0  0  0  0  0
    1.3080   -5.7529   -1.2407 C   0  0  0  0  0  0  0  0  0  0  0  0
    2.6733   -6.1517   -1.8261 C   0  0  0  0  0  0  0  0  0  0  0  0
    3.7287   -5.4952   -1.0420 N   0  0  0  0  0  0  0  0  0  0  0  0
    3.6931   -4.0337   -0.8903 C   0  0  0  0  0  0  0  0  0  0  0  0
    2.3309   -3.6344   -0.3096 C   0  0  0  0  0  0  0  0  0  0  0  0
    4.9368   -6.3858   -0.3425 S   0  0  0  0  0  0  0  0  0  0  0  0
    5.0367   -7.5546   -1.1447 O   0  0  0  0  0  0  0  0  0  0  0  0
    6.0323   -5.4874   -0.2319 O   0  0  0  0  0  0  0  0  0  0  0  0
    4.3084   -6.8109    1.3052 C   0  0  0  0  0  0  0  0  0  0  0  0
   -0.7053   -1.5084   -2.4754 N   0  0  0  0  0  0  0  0  0  0  0  0
   -0.4323   -0.0995   -3.3016 S   0  0  0  0  0  0  0  0  0  0  0  0
   -1.6022    0.1560   -4.0666 O   0  0  0  0  0  0  0  0  0  0  0  0
    0.0794    0.8319   -2.3582 O   0  0  0  0  0  0  0  0  0  0  0  0
    0.8638   -0.4135   -4.4531 C   0  0  0  0  0  0  0  0  0  0  0  0
    2.1802   -0.2064   -4.0855 C   0  0  0  0  0  0  0  0  0  0  0  0
    3.1974   -0.4570   -4.9875 C   0  0  0  0  0  0  0  0  0  0  0  0
    2.8975   -0.9056   -6.2602 C   0  0  0  0  0  0  0  0  0  0  0  0
    1.5808   -1.1081   -6.6294 C   0  0  0  0  0  0  0  0  0  0  0  0
    0.5640   -0.8616   -5.7260 C   0  0  0  0  0  0  0  0  0  0  0  0
    4.0061   -1.1742   -7.2451 C   0  0  0  0  0  0  0  0  0  0  0  0
    3.8249   -0.2801   -8.4733 C   0  0  0  0  0  0  0  0  0  0  0  0
    5.3551   -0.8726   -6.5892 C   0  0  0  0  0  0  0  0  0  0  0  0
    3.9638   -2.6426   -7.6725 C   0  0  0  0  0  0  0  0  0  0  0  0
    2.5174    4.1041    0.4271 N   0  0  0  0  0  0  0  0  0  0  0  0
    0.0580    3.7591    0.0031 H   0  0  0  0  0  0  0  0  0  0  0  0
   -2.0297    2.5199   -0.3913 H   0  0  0  0  0  0  0  0  0  0  0  0
   -2.0108    0.0606   -0.4639 H   0  0  0  0  0  0  0  0  0  0  0  0
    2.1941    0.0501    0.2397 H   0  0  0  0  0  0  0  0  0  0  0  0
    0.8901   -1.9811    0.4750 H   0  0  0  0  0  0  0  0  0  0  0  0
   -0.8654   -1.9760    0.1811 H   0  0  0  0  0  0  0  0  0  0  0  0
    1.1739   -6.2217   -0.2658 H   0  0  0  0  0  0  0  0  0  0  0  0
    0.5124   -6.0707   -1.9147 H   0  0  0  0  0  0  0  0  0  0  0  0
    2.7362   -5.8304   -2.8657 H   0  0  0  0  0  0  0  0  0  0  0  0
    2.7950   -7.2335   -1.7696 H   0  0  0  0  0  0  0  0  0  0  0  0
    3.8287   -3.5616   -1.8633 H   0  0  0  0  0  0  0  0  0  0  0  0
    4.4866   -3.7141   -0.2149 H   0  0  0  0  0  0  0  0  0  0  0  0
    2.2111   -2.5527   -0.3686 H   0  0  0  0  0  0  0  0  0  0  0  0
    2.2661   -3.9535    0.7306 H   0  0  0  0  0  0  0  0  0  0  0  0
    3.3886   -7.3871    1.2057 H   0  0  0  0  0  0  0  0  0  0  0  0
    5.0531   -7.4040    1.8362 H   0  0  0  0  0  0  0  0  0  0  0  0
    4.1062   -5.8970    1.8638 H   0  0  0  0  0  0  0  0  0  0  0  0
   -1.5545   -1.9680   -2.5676 H   0  0  0  0  0  0  0  0  0  0  0  0
    2.4142    0.1480   -3.0925 H   0  0  0  0  0  0  0  0  0  0  0  0
    4.2260   -0.2991   -4.6989 H   0  0  0  0  0  0  0  0  0  0  0  0
    1.3467   -1.4585   -7.6237 H   0  0  0  0  0  0  0  0  0  0  0  0
   -0.4647   -1.0195   -6.0146 H   0  0  0  0  0  0  0  0  0  0  0  0
    3.8551    0.7661   -8.1688 H   0  0  0  0  0  0  0  0  0  0  0  0
    4.6267   -0.4744   -9.1857 H   0  0  0  0  0  0  0  0  0  0  0  0
    2.8639   -0.4949   -8.9405 H   0  0  0  0  0  0  0  0  0  0  0  0
    5.4842   -1.5096   -5.7142 H   0  0  0  0  0  0  0  0  0  0  0  0
    6.1570   -1.0669   -7.3016 H   0  0  0  0  0  0  0  0  0  0  0  0
    5.3852    0.1735   -6.2847 H   0  0  0  0  0  0  0  0  0  0  0  0
    3.0027   -2.8575   -8.1397 H   0  0  0  0  0  0  0  0  0  0  0  0
    4.7656   -2.8369   -8.3849 H   0  0  0  0  0  0  0  0  0  0  0  0
    4.0929   -3.2796   -6.7974 H   0  0  0  0  0  0  0  0  0  0  0  0
    1.6860    4.5883    0.3040 H   0  0  0  0  0  0  0  0  0  0  0  0
    3.3430    4.5893    0.5813 H   0  0  0  0  0  0  0  0  0  0  0  0
    3.6258    2.0081    0.5434 N   0  3  0  0  0  0  0  0  0  0  0  0
    3.5800    0.9832    0.5018 H   0  0  0  0  0  0  0  0  0  0  0  0
  1 72  1  0  0  0  0
  2  3  1  0  0  0  0
  2 38  1  0  0  0  0
  2 72  2  0  0  0  0
  3  8  2  0  0  0  0
  3  4  1  0  0  0  0
  4  5  2  0  0  0  0
  4 39  1  0  0  0  0
  5  6  1  0  0  0  0
  5 40  1  0  0  0  0
  6  7  2  0  0  0  0
  6 41  1  0  0  0  0
  7  8  1  0  0  0  0
  7  9  1  0  0  0  0
  8 42  1  0  0  0  0
  9 10  1  0  0  0  0
  9 43  1  0  0  0  0
  9 44  1  0  0  0  0
 10 11  1  0  0  0  0
 10 12  1  0  0  0  0
 10 24  1  0  0  0  0
 12 13  2  0  0  0  0
 12 14  1  0  0  0  0
 14 19  1  0  0  0  0
 14 15  1  0  0  0  0
 15 16  1  0  0  0  0
 15 45  1  0  0  0  0
 15 46  1  0  0  0  0
 16 17  1  0  0  0  0
 16 47  1  0  0  0  0
 16 48  1  0  0  0  0
 17 18  1  0  0  0  0
 17 20  1  0  0  0  0
 18 19  1  0  0  0  0
 18 49  1  0  0  0  0
 18 50  1  0  0  0  0
 19 51  1  0  0  0  0
 19 52  1  0  0  0  0
 20 21  2  0  0  0  0
 20 22  2  0  0  0  0
 20 23  1  0  0  0  0
 23 53  1  0  0  0  0
 23 54  1  0  0  0  0
 23 55  1  0  0  0  0
 24 25  1  0  0  0  0
 24 56  1  0  0  0  0
 25 26  2  0  0  0  0
 25 27  2  0  0  0  0
 25 28  1  0  0  0  0
 28 33  2  0  0  0  0
 28 29  1  0  0  0  0
 29 30  2  0  0  0  0
 29 57  1  0  0  0  0
 30 31  1  0  0  0  0
 30 58  1  0  0  0  0
 31 32  2  0  0  0  0
 31 34  1  0  0  0  0
 32 33  1  0  0  0  0
 32 59  1  0  0  0  0
 33 60  1  0  0  0  0
 34 35  1  0  0  0  0
 34 36  1  0  0  0  0
 34 37  1  0  0  0  0
 35 61  1  0  0  0  0
 35 62  1  0  0  0  0
 35 63  1  0  0  0  0
 36 64  1  0  0  0  0
 36 65  1  0  0  0  0
 36 66  1  0  0  0  0
 37 67  1  0  0  0  0
 37 68  1  0  0  0  0
 37 69  1  0  0  0  0
 38 70  1  0  0  0  0
 38 71  1  0  0  0  0
 72 73  1  0  0  0  0
M  CHG  1  72   1
M  END
$$$$
ZINC03834118
  -OEChem-08230709403D

 71 73  0     1  0  0  0  0  0999 V2000
   -2.0280    3.2238   -0.3360 H   0  0  0  0  0  0  0  0  0  0  0  0
   -0.3889    2.0276   -0.1730 C   0  0  0  0  0  0  0  0  0  0  0  0
    0.0316    0.6118   -0.0637 C   0  0  0  0  0  0  0  0  0  0  0  0
    1.3857    0.2881    0.0190 C   0  0  0  0  0  0  0  0  0  0  0  0
    1.7711   -1.0324    0.1274 C   0  0  0  0  0  0  0  0  0  0  0  0
    0.8178   -2.0351    0.1412 C   0  0  0  0  0  0  0  0  0  0  0  0
   -0.5262   -1.7207    0.0534 C   0  0  0  0  0  0  0  0  0  0  0  0
   -0.9244   -0.4032   -0.0487 C   0  0  0  0  0  0  0  0  0  0  0  0
   -1.5580   -2.8189    0.0697 C   0  0  0  0  0  0  0  0  0  0  0  0
   -1.8347   -3.2801   -1.3627 C   0  0  1  0  0  0  0  0  0  0  0  0
   -0.8972   -3.5657   -1.8398 H   0  0  0  0  0  0  0  0  0  0  0  0
   -2.7670   -4.4639   -1.3381 C   0  0  0  0  0  0  0  0  0  0  0  0
   -3.9542   -4.3049   -1.5285 O   0  0  0  0  0  0  0  0  0  0  0  0
   -2.2815   -5.6992   -1.1045 N   0  0  0  0  0  0  0  0  0  0  0  0
   -0.8646   -5.8956   -0.7687 C   0  0  0  0  0  0  0  0  0  0  0  0
   -0.2638   -6.9222   -1.7273 C   0  0  0  0  0  0  0  0  0  0  0  0
   -1.1019   -8.2022   -1.6912 C   0  0  0  0  0  0  0  0  0  0  0  0
   -2.5299   -7.8920   -2.1460 C   0  0  0  0  0  0  0  0  0  0  0  0
   -3.1576   -6.8758   -1.1867 C   0  0  0  0  0  0  0  0  0  0  0  0
   -0.4837   -9.2428   -2.6270 C   0  0  0  0  0  0  0  0  0  0  0  0
   -2.4532   -2.1869   -2.1168 N   0  0  0  0  0  0  0  0  0  0  0  0
   -2.1079   -1.9909   -3.7245 S   0  0  0  0  0  0  0  0  0  0  0  0
   -2.8716   -0.8790   -4.1714 O   0  0  0  0  0  0  0  0  0  0  0  0
   -0.6929   -2.0410   -3.8449 O   0  0  0  0  0  0  0  0  0  0  0  0
   -2.7355   -3.4047   -4.5683 C   0  0  0  0  0  0  0  0  0  0  0  0
   -1.9326   -4.5156   -4.7474 C   0  0  0  0  0  0  0  0  0  0  0  0
   -2.4264   -5.6265   -5.4055 C   0  0  0  0  0  0  0  0  0  0  0  0
   -3.7200   -5.6227   -5.8929 C   0  0  0  0  0  0  0  0  0  0  0  0
   -4.5213   -4.5099   -5.7181 C   0  0  0  0  0  0  0  0  0  0  0  0
   -4.0289   -3.4007   -5.0561 C   0  0  0  0  0  0  0  0  0  0  0  0
   -4.2568   -6.8319   -6.6146 C   0  0  0  0  0  0  0  0  0  0  0  0
   -4.6599   -6.4394   -8.0374 C   0  0  0  0  0  0  0  0  0  0  0  0
   -3.1763   -7.9137   -6.6707 C   0  0  0  0  0  0  0  0  0  0  0  0
   -5.4792   -7.3702   -5.8684 C   0  0  0  0  0  0  0  0  0  0  0  0
    0.5580    3.0283   -0.1875 N   0  0  0  0  0  0  0  0  0  0  0  0
    2.1310    1.0696    0.0034 H   0  0  0  0  0  0  0  0  0  0  0  0
    2.8191   -1.2840    0.1966 H   0  0  0  0  0  0  0  0  0  0  0  0
    1.1245   -3.0675    0.2214 H   0  0  0  0  0  0  0  0  0  0  0  0
   -1.9741   -0.1589   -0.1166 H   0  0  0  0  0  0  0  0  0  0  0  0
   -1.1856   -3.6588    0.6563 H   0  0  0  0  0  0  0  0  0  0  0  0
   -2.4798   -2.4449    0.5153 H   0  0  0  0  0  0  0  0  0  0  0  0
   -0.3314   -4.9501   -0.8671 H   0  0  0  0  0  0  0  0  0  0  0  0
   -0.7789   -6.2612    0.2545 H   0  0  0  0  0  0  0  0  0  0  0  0
    0.7589   -7.1484   -1.4257 H   0  0  0  0  0  0  0  0  0  0  0  0
   -0.2640   -6.5156   -2.7386 H   0  0  0  0  0  0  0  0  0  0  0  0
   -1.1218   -8.5945   -0.6744 H   0  0  0  0  0  0  0  0  0  0  0  0
   -3.1201   -8.8083   -2.1424 H   0  0  0  0  0  0  0  0  0  0  0  0
   -2.5086   -7.4762   -3.1534 H   0  0  0  0  0  0  0  0  0  0  0  0
   -3.2626   -7.3230   -0.1982 H   0  0  0  0  0  0  0  0  0  0  0  0
   -4.1368   -6.5768   -1.5607 H   0  0  0  0  0  0  0  0  0  0  0  0
   -0.4642   -8.8509   -3.6440 H   0  0  0  0  0  0  0  0  0  0  0  0
    0.5333   -9.4640   -2.3033 H   0  0  0  0  0  0  0  0  0  0  0  0
   -1.0799  -10.1550   -2.6006 H   0  0  0  0  0  0  0  0  0  0  0  0
   -3.0650   -1.5779   -1.6744 H   0  0  0  0  0  0  0  0  0  0  0  0
   -0.9206   -4.5170   -4.3701 H   0  0  0  0  0  0  0  0  0  0  0  0
   -1.8006   -6.4960   -5.5419 H   0  0  0  0  0  0  0  0  0  0  0  0
   -5.5319   -4.5070   -6.0989 H   0  0  0  0  0  0  0  0  0  0  0  0
   -4.6548   -2.5313   -4.9199 H   0  0  0  0  0  0  0  0  0  0  0  0
   -3.7892   -6.0559   -8.5691 H   0  0  0  0  0  0  0  0  0  0  0  0
   -5.0482   -7.3141   -8.5594 H   0  0  0  0  0  0  0  0  0  0  0  0
   -5.4297   -5.6688   -7.9974 H   0  0  0  0  0  0  0  0  0  0  0  0
   -2.8891   -8.1933   -5.6571 H   0  0  0  0  0  0  0  0  0  0  0  0
   -3.5645   -8.7883   -7.1927 H   0  0  0  0  0  0  0  0  0  0  0  0
   -2.3055   -7.5302   -7.2024 H   0  0  0  0  0  0  0  0  0  0  0  0
   -6.2489   -6.5996   -5.8284 H   0  0  0  0  0  0  0  0  0  0  0  0
   -5.8674   -8.2448   -6.3903 H   0  0  0  0  0  0  0  0  0  0  0  0
   -5.1919   -7.6498   -4.8547 H   0  0  0  0  0  0  0  0  0  0  0  0
    1.5001    2.8056   -0.1261 H   0  0  0  0  0  0  0  0  0  0  0  0
    0.2825    3.9556   -0.2591 H   0  0  0  0  0  0  0  0  0  0  0  0
   -1.6886    2.2649   -0.2590 N   0  3  0  0  0  0  0  0  0  0  0  0
   -2.3549    1.4837   -0.2483 H   0  0  0  0  0  0  0  0  0  0  0  0
  1 70  1  0  0  0  0
  2  3  1  0  0  0  0
  2 35  1  0  0  0  0
  2 70  2  0  0  0  0
  3  8  2  0  0  0  0
  3  4  1  0  0  0  0
  4  5  2  0  0  0  0
  4 36  1  0  0  0  0
  5  6  1  0  0  0  0
  5 37  1  0  0  0  0
  6  7  2  0  0  0  0
  6 38  1  0  0  0  0
  7  8  1  0  0  0  0
  7  9  1  0  0  0  0
  8 39  1  0  0  0  0
  9 10  1  0  0  0  0
  9 40  1  0  0  0  0
  9 41  1  0  0  0  0
 10 11  1  0  0  0  0
 10 12  1  0  0  0  0
 10 21  1  0  0  0  0
 12 13  2  0  0  0  0
 12 14  1  0  0  0  0
 14 19  1  0  0  0  0
 14 15  1  0  0  0  0
 15 16  1  0  0  0  0
 15 42  1  0  0  0  0
 15 43  1  0  0  0  0
 16 17  1  0  0  0  0
 16 44  1  0  0  0  0
 16 45  1  0  0  0  0
 17 18  1  0  0  0  0
 17 20  1  0  0  0  0
 17 46  1  0  0  0  0
 18 19  1  0  0  0  0
 18 47  1  0  0  0  0
 18 48  1  0  0  0  0
 19 49  1  0  0  0  0
 19 50  1  0  0  0  0
 20 51  1  0  0  0  0
 20 52  1  0  0  0  0
 20 53  1  0  0  0  0
 21 22  1  0  0  0  0
 21 54  1  0  0  0  0
 22 23  2  0  0  0  0
 22 24  2  0  0  0  0
 22 25  1  0  0  0  0
 25 30  2  0  0  0  0
 25 26  1  0  0  0  0
 26 27  2  0  0  0  0
 26 55  1  0  0  0  0
 27 28  1  0  0  0  0
 27 56  1  0  0  0  0
 28 29  2  0  0  0  0
 28 31  1  0  0  0  0
 29 30  1  0  0  0  0
 29 57  1  0  0  0  0
 30 58  1  0  0  0  0
 31 32  1  0  0  0  0
 31 33  1  0  0  0  0
 31 34  1  0  0  0  0
 32 59  1  0  0  0  0
 32 60  1  0  0  0  0
 32 61  1  0  0  0  0
 33 62  1  0  0  0  0
 33 63  1  0  0  0  0
 33 64  1  0  0  0  0
 34 65  1  0  0  0  0
 34 66  1  0  0  0  0
 34 67  1  0  0  0  0
 35 68  1  0  0  0  0
 35 69  1  0  0  0  0
 70 71  1  0  0  0  0
M  CHG  1  70   1
M  END
$$$$
ZINC03834119
  -OEChem-08230709403D

 65 68  0     1  0  0  0  0  0999 V2000
    2.6084   -1.7259   -0.0275 H   0  0  0  0  0  0  0  0  0  0  0  0
    0.8445   -0.7092   -0.0205 C   0  0  0  0  0  0  0  0  0  0  0  0
    0.2701    0.6556   -0.0157 C   0  0  0  0  0  0  0  0  0  0  0  0
   -1.1134    0.8330   -0.0175 C   0  0  0  0  0  0  0  0  0  0  0  0
   -1.6426    2.1071   -0.0072 C   0  0  0  0  0  0  0  0  0  0  0  0
   -0.8040    3.2076   -0.0072 C   0  0  0  0  0  0  0  0  0  0  0  0
    0.5688    3.0381   -0.0111 C   0  0  0  0  0  0  0  0  0  0  0  0
    1.1101    1.7686   -0.0152 C   0  0  0  0  0  0  0  0  0  0  0  0
    1.4752    4.2420   -0.0107 C   0  0  0  0  0  0  0  0  0  0  0  0
    1.7786    4.6526   -1.4529 C   0  0  1  0  0  0  0  0  0  0  0  0
    0.8505    4.9221   -1.9570 H   0  0  0  0  0  0  0  0  0  0  0  0
    2.7119    5.8358   -1.4526 C   0  0  0  0  0  0  0  0  0  0  0  0
    3.8942    5.6756   -1.6704 O   0  0  0  0  0  0  0  0  0  0  0  0
    2.2328    7.0720   -1.2104 N   0  0  0  0  0  0  0  0  0  0  0  0
    0.8269    7.2691   -0.8318 C   0  0  0  0  0  0  0  0  0  0  0  0
    0.1957    8.2903   -1.7764 C   0  0  0  0  0  0  0  0  0  0  0  0
    1.0333    9.5710   -1.7730 C   0  0  0  0  0  0  0  0  0  0  0  0
    2.4468    9.2596   -2.2702 C   0  0  0  0  0  0  0  0  0  0  0  0
    3.1049    8.2488   -1.3257 C   0  0  0  0  0  0  0  0  0  0  0  0
    0.3855   10.6064   -2.6944 C   0  0  0  0  0  0  0  0  0  0  0  0
    2.4093    3.5333   -2.1570 N   0  0  0  0  0  0  0  0  0  0  0  0
    1.4862    2.4995   -3.0632 S   0  0  0  0  0  0  0  0  0  0  0  0
    2.3786    1.5512   -3.6325 O   0  0  0  0  0  0  0  0  0  0  0  0
    0.3863    2.1171   -2.2488 O   0  0  0  0  0  0  0  0  0  0  0  0
    0.8214    3.4323   -4.4021 C   0  0  0  0  0  0  0  0  0  0  0  0
   -0.4106    4.0665   -4.2518 C   0  0  0  0  0  0  0  0  0  0  0  0
   -0.9496    4.7991   -5.2641 C   0  0  0  0  0  0  0  0  0  0  0  0
   -0.2619    4.9101   -6.4846 C   0  0  0  0  0  0  0  0  0  0  0  0
   -0.7899    5.6523   -7.5549 C   0  0  0  0  0  0  0  0  0  0  0  0
   -0.0955    5.7380   -8.7223 C   0  0  0  0  0  0  0  0  0  0  0  0
    1.1339    5.0993   -8.8744 C   0  0  0  0  0  0  0  0  0  0  0  0
    1.6759    4.3718   -7.8600 C   0  0  0  0  0  0  0  0  0  0  0  0
    0.9882    4.2608   -6.6394 C   0  0  0  0  0  0  0  0  0  0  0  0
    1.5159    3.5180   -5.5693 C   0  0  0  0  0  0  0  0  0  0  0  0
    0.0119   -1.8072   -0.0210 N   0  0  0  0  0  0  0  0  0  0  0  0
   -1.7690   -0.0252   -0.0223 H   0  0  0  0  0  0  0  0  0  0  0  0
   -2.7136    2.2458   -0.0038 H   0  0  0  0  0  0  0  0  0  0  0  0
   -1.2229    4.2030   -0.0037 H   0  0  0  0  0  0  0  0  0  0  0  0
    2.1821    1.6374   -0.0176 H   0  0  0  0  0  0  0  0  0  0  0  0
    0.9838    5.0665    0.5061 H   0  0  0  0  0  0  0  0  0  0  0  0
    2.4059    3.9959    0.5005 H   0  0  0  0  0  0  0  0  0  0  0  0
    0.2916    6.3226   -0.9087 H   0  0  0  0  0  0  0  0  0  0  0  0
    0.7725    7.6398    0.1917 H   0  0  0  0  0  0  0  0  0  0  0  0
   -0.8175    8.5172   -1.4445 H   0  0  0  0  0  0  0  0  0  0  0  0
    0.1647    7.8786   -2.7853 H   0  0  0  0  0  0  0  0  0  0  0  0
    1.0844    9.9685   -0.7592 H   0  0  0  0  0  0  0  0  0  0  0  0
    3.0360   10.1764   -2.2896 H   0  0  0  0  0  0  0  0  0  0  0  0
    2.3947    8.8387   -3.2743 H   0  0  0  0  0  0  0  0  0  0  0  0
    3.2402    8.7011   -0.3432 H   0  0  0  0  0  0  0  0  0  0  0  0
    4.0723    7.9486   -1.7284 H   0  0  0  0  0  0  0  0  0  0  0  0
    0.3348   10.2093   -3.7082 H   0  0  0  0  0  0  0  0  0  0  0  0
   -0.6213   10.8284   -2.3404 H   0  0  0  0  0  0  0  0  0  0  0  0
    0.9813   11.5191   -2.6911 H   0  0  0  0  0  0  0  0  0  0  0  0
    3.3676    3.3977   -2.0921 H   0  0  0  0  0  0  0  0  0  0  0  0
   -0.9434    3.9788   -3.3165 H   0  0  0  0  0  0  0  0  0  0  0  0
   -1.9034    5.2882   -5.1320 H   0  0  0  0  0  0  0  0  0  0  0  0
   -1.7414    6.1525   -7.4514 H   0  0  0  0  0  0  0  0  0  0  0  0
   -0.5034    6.3092   -9.5431 H   0  0  0  0  0  0  0  0  0  0  0  0
    1.6642    5.1827   -9.8116 H   0  0  0  0  0  0  0  0  0  0  0  0
    2.6292    3.8820   -7.9925 H   0  0  0  0  0  0  0  0  0  0  0  0
    2.4673    3.0175   -5.6728 H   0  0  0  0  0  0  0  0  0  0  0  0
   -0.9504   -1.6860   -0.0181 H   0  0  0  0  0  0  0  0  0  0  0  0
    0.3882   -2.7011   -0.0241 H   0  0  0  0  0  0  0  0  0  0  0  0
    2.1650   -0.8071   -0.0242 N   0  3  0  0  0  0  0  0  0  0  0  0
    2.7427    0.0417   -0.0236 H   0  0  0  0  0  0  0  0  0  0  0  0
  1 64  1  0  0  0  0
  2  3  1  0  0  0  0
  2 35  1  0  0  0  0
  2 64  2  0  0  0  0
  3  8  2  0  0  0  0
  3  4  1  0  0  0  0
  4  5  2  0  0  0  0
  4 36  1  0  0  0  0
  5  6  1  0  0  0  0
  5 37  1  0  0  0  0
  6  7  2  0  0  0  0
  6 38  1  0  0  0  0
  7  8  1  0  0  0  0
  7  9  1  0  0  0  0
  8 39  1  0  0  0  0
  9 10  1  0  0  0  0
  9 40  1  0  0  0  0
  9 41  1  0  0  0  0
 10 11  1  0  0  0  0
 10 12  1  0  0  0  0
 10 21  1  0  0  0  0
 12 13  2  0  0  0  0
 12 14  1  0  0  0  0
 14 19  1  0  0  0  0
 14 15  1  0  0  0  0
 15 16  1  0  0  0  0
 15 42  1  0  0  0  0
 15 43  1  0  0  0  0
 16 17  1  0  0  0  0
 16 44  1  0  0  0  0
 16 45  1  0  0  0  0
 17 18  1  0  0  0  0
 17 20  1  0  0  0  0
 17 46  1  0  0  0  0
 18 19  1  0  0  0  0
 18 47  1  0  0  0  0
 18 48  1  0  0  0  0
 19 49  1  0  0  0  0
 19 50  1  0  0  0  0
 20 51  1  0  0  0  0
 20 52  1  0  0  0  0
 20 53  1  0  0  0  0
 21 22  1  0  0  0  0
 21 54  1  0  0  0  0
 22 23  2  0  0  0  0
 22 24  2  0  0  0  0
 22 25  1  0  0  0  0
 25 34  2  0  0  0  0
 25 26  1  0  0  0  0
 26 27  2  0  0  0  0
 26 55  1  0  0  0  0
 27 28  1  0  0  0  0
 27 56  1  0  0  0  0
 28 33  2  0  0  0  0
 28 29  1  0  0  0  0
 29 30  2  0  0  0  0
 29 57  1  0  0  0  0
 30 31  1  0  0  0  0
 30 58  1  0  0  0  0
 31 32  2  0  0  0  0
 31 59  1  0  0  0  0
 32 33  1  0  0  0  0
 32 60  1  0  0  0  0
 33 34  1  0  0  0  0
 34 61  1  0  0  0  0
 35 62  1  0  0  0  0
 35 63  1  0  0  0  0
 64 65  1  0  0  0  0
M  CHG  1  64   1
M  END
$$$$
ZINC03834121
  -OEChem-08230709403D

 74 77  0     1  0  0  0  0  0999 V2000
   -3.3995   -3.1735   -3.5584 H   0  0  0  0  0  0  0  0  0  0  0  0
   -4.4514   -2.0326   -2.2408 C   0  0  0  0  0  0  0  0  0  0  0  0
   -4.3551   -0.8277   -1.3852 C   0  0  0  0  0  0  0  0  0  0  0  0
   -5.4434   -0.4324   -0.6074 C   0  0  0  0  0  0  0  0  0  0  0  0
   -5.3474    0.6908    0.1880 C   0  0  0  0  0  0  0  0  0  0  0  0
   -4.1748    1.4246    0.2151 C   0  0  0  0  0  0  0  0  0  0  0  0
   -3.0922    1.0376   -0.5540 C   0  0  0  0  0  0  0  0  0  0  0  0
   -3.1779   -0.0811   -1.3577 C   0  0  0  0  0  0  0  0  0  0  0  0
   -1.8188    1.8428   -0.5190 C   0  0  0  0  0  0  0  0  0  0  0  0
   -0.9041    1.3030    0.5823 C   0  0  1  0  0  0  0  0  0  0  0  0
   -0.7441    0.2354    0.4308 H   0  0  0  0  0  0  0  0  0  0  0  0
    0.4196    2.0214    0.5328 C   0  0  0  0  0  0  0  0  0  0  0  0
    0.6852    2.8613    1.3665 O   0  0  0  0  0  0  0  0  0  0  0  0
    1.3084    1.7306   -0.4377 N   0  0  0  0  0  0  0  0  0  0  0  0
    0.9575    0.8007   -1.5198 C   0  0  0  0  0  0  0  0  0  0  0  0
    2.0180   -0.2961   -1.5966 C   0  0  0  0  0  0  0  0  0  0  0  0
    3.4009    0.3435   -1.7407 C   0  0  0  0  0  0  0  0  0  0  0  0
    3.6920    1.2143   -0.5163 C   0  0  0  0  0  0  0  0  0  0  0  0
    2.6486    2.3326   -0.4303 C   0  0  0  0  0  0  0  0  0  0  0  0
    4.4612   -0.7541   -1.8493 C   0  0  0  0  0  0  0  0  0  0  0  0
   -1.5304    1.5224    1.8884 N   0  0  0  0  0  0  0  0  0  0  0  0
   -1.3304    0.4111    3.0997 S   0  0  0  0  0  0  0  0  0  0  0  0
   -2.0806    0.9257    4.1913 O   0  0  0  0  0  0  0  0  0  0  0  0
   -1.6729   -0.8350    2.5087 O   0  0  0  0  0  0  0  0  0  0  0  0
    0.4418    0.4543    3.4840 C   0  0  0  0  0  0  0  0  0  0  0  0
    0.7457   -0.5444    4.6026 C   0  0  1  0  0  0  0  0  0  0  0  0
    0.4490   -2.0402    4.2777 C   0  0  0  0  0  0  0  0  0  0  0  0
    1.3051   -2.8241    5.3279 C   0  0  0  0  0  0  0  0  0  0  0  0
    2.0022   -1.7151    6.1747 C   0  0  1  0  0  0  0  0  0  0  0  0
    2.8684   -2.0301    6.7567 H   0  0  0  0  0  0  0  0  0  0  0  0
    2.2400   -0.6190    5.0759 C   0  0  0  0  0  0  0  0  0  0  0  0
    3.1739   -1.0920    3.9602 C   0  0  0  0  0  0  0  0  0  0  0  0
    2.7141    0.6979    5.6939 C   0  0  0  0  0  0  0  0  0  0  0  0
    0.8394   -1.0548    6.9773 C   0  0  0  0  0  0  0  0  0  0  0  0
    0.0321   -0.2908    5.9380 C   0  0  0  0  0  0  0  0  0  0  0  0
   -0.9591    0.3736    6.1241 O   0  0  0  0  0  0  0  0  0  0  0  0
   -5.6177   -2.7657   -2.2695 N   0  0  0  0  0  0  0  0  0  0  0  0
   -6.3593   -1.0042   -0.6280 H   0  0  0  0  0  0  0  0  0  0  0  0
   -6.1893    0.9976    0.7911 H   0  0  0  0  0  0  0  0  0  0  0  0
   -4.1043    2.3029    0.8396 H   0  0  0  0  0  0  0  0  0  0  0  0
   -2.3334   -0.3796   -1.9612 H   0  0  0  0  0  0  0  0  0  0  0  0
   -2.0548    2.8873   -0.3158 H   0  0  0  0  0  0  0  0  0  0  0  0
   -1.3134    1.7652   -1.4816 H   0  0  0  0  0  0  0  0  0  0  0  0
   -0.0151    0.3532   -1.3160 H   0  0  0  0  0  0  0  0  0  0  0  0
    0.9232    1.3389   -2.4672 H   0  0  0  0  0  0  0  0  0  0  0  0
    1.8209   -0.9346   -2.4579 H   0  0  0  0  0  0  0  0  0  0  0  0
    1.9868   -0.8940   -0.6858 H   0  0  0  0  0  0  0  0  0  0  0  0
    3.4236    0.9605   -2.6389 H   0  0  0  0  0  0  0  0  0  0  0  0
    4.6865    1.6508   -0.6086 H   0  0  0  0  0  0  0  0  0  0  0  0
    3.6452    0.6030    0.3849 H   0  0  0  0  0  0  0  0  0  0  0  0
    2.7549    2.9982   -1.2870 H   0  0  0  0  0  0  0  0  0  0  0  0
    2.7904    2.8975    0.4910 H   0  0  0  0  0  0  0  0  0  0  0  0
    4.4390   -1.3710   -0.9510 H   0  0  0  0  0  0  0  0  0  0  0  0
    4.2540   -1.3744   -2.7213 H   0  0  0  0  0  0  0  0  0  0  0  0
    5.4461   -0.2988   -1.9532 H   0  0  0  0  0  0  0  0  0  0  0  0
   -2.0622    2.3186    2.0436 H   0  0  0  0  0  0  0  0  0  0  0  0
    1.0131    0.1884    2.5946 H   0  0  0  0  0  0  0  0  0  0  0  0
    0.7192    1.4575    3.8074 H   0  0  0  0  0  0  0  0  0  0  0  0
   -0.6115   -2.2549    4.4096 H   0  0  0  0  0  0  0  0  0  0  0  0
    0.7621   -2.2777    3.2610 H   0  0  0  0  0  0  0  0  0  0  0  0
    2.0484   -3.4457    4.8290 H   0  0  0  0  0  0  0  0  0  0  0  0
    0.6601   -3.4356    5.9588 H   0  0  0  0  0  0  0  0  0  0  0  0
    3.1178   -0.3987    3.1210 H   0  0  0  0  0  0  0  0  0  0  0  0
    4.1973   -1.1281    4.3338 H   0  0  0  0  0  0  0  0  0  0  0  0
    2.8721   -2.0863    3.6309 H   0  0  0  0  0  0  0  0  0  0  0  0
    2.0955    0.9368    6.5590 H   0  0  0  0  0  0  0  0  0  0  0  0
    3.7536    0.5990    6.0068 H   0  0  0  0  0  0  0  0  0  0  0  0
    2.6310    1.4961    4.9563 H   0  0  0  0  0  0  0  0  0  0  0  0
    1.2190   -0.4516    7.6787 H   0  0  0  0  0  0  0  0  0  0  0  0
    0.2221   -1.8181    7.4510 H   0  0  0  0  0  0  0  0  0  0  0  0
   -6.3757   -2.4926   -1.7293 H   0  0  0  0  0  0  0  0  0  0  0  0
   -5.6808   -3.5550   -2.8299 H   0  0  0  0  0  0  0  0  0  0  0  0
   -3.3825   -2.3521   -2.9536 N   0  3  0  0  0  0  0  0  0  0  0  0
   -2.5363   -1.7733   -2.8978 H   0  0  0  0  0  0  0  0  0  0  0  0
  1 73  1  0  0  0  0
  2  3  1  0  0  0  0
  2 37  1  0  0  0  0
  2 73  2  0  0  0  0
  3  8  2  0  0  0  0
  3  4  1  0  0  0  0
  4  5  2  0  0  0  0
  4 38  1  0  0  0  0
  5  6  1  0  0  0  0
  5 39  1  0  0  0  0
  6  7  2  0  0  0  0
  6 40  1  0  0  0  0
  7  8  1  0  0  0  0
  7  9  1  0  0  0  0
  8 41  1  0  0  0  0
  9 10  1  0  0  0  0
  9 42  1  0  0  0  0
  9 43  1  0  0  0  0
 10 11  1  0  0  0  0
 10 12  1  0  0  0  0
 10 21  1  0  0  0  0
 12 13  2  0  0  0  0
 12 14  1  0  0  0  0
 14 19  1  0  0  0  0
 14 15  1  0  0  0  0
 15 16  1  0  0  0  0
 15 44  1  0  0  0  0
 15 45  1  0  0  0  0
 16 17  1  0  0  0  0
 16 46  1  0  0  0  0
 16 47  1  0  0  0  0
 17 18  1  0  0  0  0
 17 20  1  0  0  0  0
 17 48  1  0  0  0  0
 18 19  1  0  0  0  0
 18 49  1  0  0  0  0
 18 50  1  0  0  0  0
 19 51  1  0  0  0  0
 19 52  1  0  0  0  0
 20 53  1  0  0  0  0
 20 54  1  0  0  0  0
 20 55  1  0  0  0  0
 21 22  1  0  0  0  0
 21 56  1  0  0  0  0
 22 23  2  0  0  0  0
 22 24  2  0  0  0  0
 22 25  1  0  0  0  0
 25 26  1  0  0  0  0
 25 57  1  0  0  0  0
 25 58  1  0  0  0  0
 26 31  1  0  0  0  0
 26 35  1  0  0  0  0
 26 27  1  0  0  0  0
 27 28  1  0  0  0  0
 27 59  1  0  0  0  0
 27 60  1  0  0  0  0
 28 29  1  0  0  0  0
 28 61  1  0  0  0  0
 28 62  1  0  0  0  0
 29 30  1  0  0  0  0
 29 31  1  0  0  0  0
 29 34  1  0  0  0  0
 31 32  1  0  0  0  0
 31 33  1  0  0  0  0
 32 63  1  0  0  0  0
 32 64  1  0  0  0  0
 32 65  1  0  0  0  0
 33 66  1  0  0  0  0
 33 67  1  0  0  0  0
 33 68  1  0  0  0  0
 34 35  1  0  0  0  0
 34 69  1  0  0  0  0
 34 70  1  0  0  0  0
 35 36  2  0  0  0  0
 37 71  1  0  0  0  0
 37 72  1  0  0  0  0
 73 74  1  0  0  0  0
M  CHG  1  73   1
M  END
$$$$
ZINC03834122
  -OEChem-08230709403D

 65 68  0     1  0  0  0  0  0999 V2000
   -8.4192    5.1630    3.4106 H   0  0  0  0  0  0  0  0  0  0  0  0
   -7.8985    6.8194    2.3479 C   0  0  0  0  0  0  0  0  0  0  0  0
   -6.7347    7.6322    1.9261 C   0  0  0  0  0  0  0  0  0  0  0  0
   -6.9222    8.7679    1.1384 C   0  0  0  0  0  0  0  0  0  0  0  0
   -5.8341    9.5212    0.7490 C   0  0  0  0  0  0  0  0  0  0  0  0
   -4.5592    9.1556    1.1431 C   0  0  0  0  0  0  0  0  0  0  0  0
   -4.3662    8.0273    1.9196 C   0  0  0  0  0  0  0  0  0  0  0  0
   -5.4468    7.2656    2.3154 C   0  0  0  0  0  0  0  0  0  0  0  0
   -2.9738    7.6325    2.3394 C   0  0  0  0  0  0  0  0  0  0  0  0
   -2.3716    6.6948    1.2912 C   0  0  1  0  0  0  0  0  0  0  0  0
   -2.3751    7.1870    0.3186 H   0  0  0  0  0  0  0  0  0  0  0  0
   -0.9552    6.3540    1.6765 C   0  0  0  0  0  0  0  0  0  0  0  0
   -0.7236    5.3390    2.2988 O   0  0  0  0  0  0  0  0  0  0  0  0
    0.0542    7.1769    1.3296 N   0  0  0  0  0  0  0  0  0  0  0  0
   -0.2191    8.4557    0.6599 C   0  0  0  0  0  0  0  0  0  0  0  0
    0.6023    8.5297   -0.6259 C   0  0  0  0  0  0  0  0  0  0  0  0
    2.0788    8.2935   -0.2997 C   0  0  0  0  0  0  0  0  0  0  0  0
    2.2523    6.8992    0.3069 C   0  0  0  0  0  0  0  0  0  0  0  0
    1.4492    6.8094    1.6083 C   0  0  0  0  0  0  0  0  0  0  0  0
    2.9071    8.3983   -1.5818 C   0  0  0  0  0  0  0  0  0  0  0  0
   -3.1674    5.4668    1.2199 N   0  0  0  0  0  0  0  0  0  0  0  0
   -3.3824    4.7026   -0.2334 S   0  0  0  0  0  0  0  0  0  0  0  0
   -3.7687    5.7035   -1.1653 O   0  0  0  0  0  0  0  0  0  0  0  0
   -4.1788    3.5546    0.0253 O   0  0  0  0  0  0  0  0  0  0  0  0
   -1.8044    4.1145   -0.7514 C   0  0  0  0  0  0  0  0  0  0  0  0
   -1.2163    4.6256   -1.8677 C   0  0  0  0  0  0  0  0  0  0  0  0
    0.0287    4.1692   -2.2956 C   0  0  0  0  0  0  0  0  0  0  0  0
    0.6985    3.2074   -1.6032 C   0  0  0  0  0  0  0  0  0  0  0  0
    0.1262    2.6606   -0.4424 C   0  0  0  0  0  0  0  0  0  0  0  0
   -1.1429    3.1208   -0.0103 C   0  0  0  0  0  0  0  0  0  0  0  0
   -1.7151    2.5743    1.1513 C   0  0  0  0  0  0  0  0  0  0  0  0
   -1.0455    1.6129    1.8436 C   0  0  0  0  0  0  0  0  0  0  0  0
    0.2026    1.1605    1.4188 C   0  0  0  0  0  0  0  0  0  0  0  0
    0.7877    1.6666    0.2991 C   0  0  0  0  0  0  0  0  0  0  0  0
   -9.1698    7.1842    1.9617 N   0  0  0  0  0  0  0  0  0  0  0  0
   -7.9174    9.0569    0.8340 H   0  0  0  0  0  0  0  0  0  0  0  0
   -5.9780   10.4006    0.1386 H   0  0  0  0  0  0  0  0  0  0  0  0
   -3.7109    9.7510    0.8395 H   0  0  0  0  0  0  0  0  0  0  0  0
   -5.2953    6.3871    2.9251 H   0  0  0  0  0  0  0  0  0  0  0  0
   -3.0153    7.1227    3.3020 H   0  0  0  0  0  0  0  0  0  0  0  0
   -2.3540    8.5250    2.4273 H   0  0  0  0  0  0  0  0  0  0  0  0
   -1.2800    8.5225    0.4185 H   0  0  0  0  0  0  0  0  0  0  0  0
    0.0607    9.2794    1.3168 H   0  0  0  0  0  0  0  0  0  0  0  0
    0.4829    9.5136   -1.0794 H   0  0  0  0  0  0  0  0  0  0  0  0
    0.2562    7.7641   -1.3203 H   0  0  0  0  0  0  0  0  0  0  0  0
    2.4175    9.0447    0.4138 H   0  0  0  0  0  0  0  0  0  0  0  0
    3.3070    6.7227    0.5174 H   0  0  0  0  0  0  0  0  0  0  0  0
    1.8906    6.1489   -0.3962 H   0  0  0  0  0  0  0  0  0  0  0  0
    1.8678    7.4960    2.3442 H   0  0  0  0  0  0  0  0  0  0  0  0
    1.4887    5.7901    1.9925 H   0  0  0  0  0  0  0  0  0  0  0  0
    2.5689    7.6468   -2.2953 H   0  0  0  0  0  0  0  0  0  0  0  0
    2.7838    9.3912   -2.0140 H   0  0  0  0  0  0  0  0  0  0  0  0
    3.9589    8.2313   -1.3495 H   0  0  0  0  0  0  0  0  0  0  0  0
   -3.5682    5.1013    2.0241 H   0  0  0  0  0  0  0  0  0  0  0  0
   -1.7244    5.3930   -2.4326 H   0  0  0  0  0  0  0  0  0  0  0  0
    0.4709    4.5879   -3.1876 H   0  0  0  0  0  0  0  0  0  0  0  0
    1.6651    2.8668   -1.9441 H   0  0  0  0  0  0  0  0  0  0  0  0
   -2.6812    2.9156    1.4928 H   0  0  0  0  0  0  0  0  0  0  0  0
   -1.4875    1.1944    2.7357 H   0  0  0  0  0  0  0  0  0  0  0  0
    0.7131    0.3970    1.9869 H   0  0  0  0  0  0  0  0  0  0  0  0
    1.7553    1.3066   -0.0177 H   0  0  0  0  0  0  0  0  0  0  0  0
   -9.3024    7.9733    1.4135 H   0  0  0  0  0  0  0  0  0  0  0  0
   -9.9320    6.6517    2.2379 H   0  0  0  0  0  0  0  0  0  0  0  0
   -7.6506    5.7547    3.0949 N   0  3  0  0  0  0  0  0  0  0  0  0
   -6.6847    5.5247    3.3564 H   0  0  0  0  0  0  0  0  0  0  0  0
  1 64  1  0  0  0  0
  2  3  1  0  0  0  0
  2 35  1  0  0  0  0
  2 64  2  0  0  0  0
  3  8  2  0  0  0  0
  3  4  1  0  0  0  0
  4  5  2  0  0  0  0
  4 36  1  0  0  0  0
  5  6  1  0  0  0  0
  5 37  1  0  0  0  0
  6  7  2  0  0  0  0
  6 38  1  0  0  0  0
  7  8  1  0  0  0  0
  7  9  1  0  0  0  0
  8 39  1  0  0  0  0
  9 10  1  0  0  0  0
  9 40  1  0  0  0  0
  9 41  1  0  0  0  0
 10 11  1  0  0  0  0
 10 12  1  0  0  0  0
 10 21  1  0  0  0  0
 12 13  2  0  0  0  0
 12 14  1  0  0  0  0
 14 19  1  0  0  0  0
 14 15  1  0  0  0  0
 15 16  1  0  0  0  0
 15 42  1  0  0  0  0
 15 43  1  0  0  0  0
 16 17  1  0  0  0  0
 16 44  1  0  0  0  0
 16 45  1  0  0  0  0
 17 18  1  0  0  0  0
 17 20  1  0  0  0  0
 17 46  1  0  0  0  0
 18 19  1  0  0  0  0
 18 47  1  0  0  0  0
 18 48  1  0  0  0  0
 19 49  1  0  0  0  0
 19 50  1  0  0  0  0
 20 51  1  0  0  0  0
 20 52  1  0  0  0  0
 20 53  1  0  0  0  0
 21 22  1  0  0  0  0
 21 54  1  0  0  0  0
 22 23  2  0  0  0  0
 22 24  2  0  0  0  0
 22 25  1  0  0  0  0
 25 30  2  0  0  0  0
 25 26  1  0  0  0  0
 26 27  2  0  0  0  0
 26 55  1  0  0  0  0
 27 28  1  0  0  0  0
 27 56  1  0  0  0  0
 28 29  2  0  0  0  0
 28 57  1  0  0  0  0
 29 34  1  0  0  0  0
 29 30  1  0  0  0  0
 30 31  1  0  0  0  0
 31 32  2  0  0  0  0
 31 58  1  0  0  0  0
 32 33  1  0  0  0  0
 32 59  1  0  0  0  0
 33 34  2  0  0  0  0
 33 60  1  0  0  0  0
 34 61  1  0  0  0  0
 35 62  1  0  0  0  0
 35 63  1  0  0  0  0
 64 65  1  0  0  0  0
M  CHG  1  64   1
M  END
$$$$
ZINC03834123
  -OEChem-08230709403D

 68 72  0     1  0  0  0  0  0999 V2000
   -3.1383   11.0618    1.0043 H   0  0  0  0  0  0  0  0  0  0  0  0
   -3.3478   10.3329   -0.8850 C   0  0  0  0  0  0  0  0  0  0  0  0
   -3.2523    9.0920   -1.6875 C   0  0  0  0  0  0  0  0  0  0  0  0
   -3.5143    9.1221   -3.0571 C   0  0  0  0  0  0  0  0  0  0  0  0
   -3.4231    7.9627   -3.7996 C   0  0  0  0  0  0  0  0  0  0  0  0
   -3.0675    6.7731   -3.1892 C   0  0  0  0  0  0  0  0  0  0  0  0
   -2.8116    6.7360   -1.8304 C   0  0  0  0  0  0  0  0  0  0  0  0
   -2.8994    7.8890   -1.0771 C   0  0  0  0  0  0  0  0  0  0  0  0
   -2.4299    5.4351   -1.1723 C   0  0  0  0  0  0  0  0  0  0  0  0
   -3.6924    4.7184   -0.6890 C   0  0  1  0  0  0  0  0  0  0  0  0
   -4.3834    4.5973   -1.5232 H   0  0  0  0  0  0  0  0  0  0  0  0
   -3.3228    3.3637   -0.1419 C   0  0  0  0  0  0  0  0  0  0  0  0
   -3.5692    3.0884    1.0132 O   0  0  0  0  0  0  0  0  0  0  0  0
   -2.7183    2.4583   -0.9365 N   0  0  0  0  0  0  0  0  0  0  0  0
   -2.3245    2.7904   -2.3098 C   0  0  0  0  0  0  0  0  0  0  0  0
   -2.7059    1.6613   -3.2338 C   0  0  0  0  0  0  0  0  0  0  0  0
   -2.6259    1.8882   -4.6012 C   0  0  0  0  0  0  0  0  0  0  0  0
   -2.9538    0.8915   -5.4970 C   0  0  0  0  0  0  0  0  0  0  0  0
   -3.3642   -0.3430   -5.0288 C   0  0  0  0  0  0  0  0  0  0  0  0
   -3.4470   -0.5687   -3.6708 C   0  0  0  0  0  0  0  0  0  0  0  0
   -3.1215    0.4350   -2.7661 C   0  0  0  0  0  0  0  0  0  0  0  0
   -3.2495    0.1203   -1.2990 C   0  0  0  0  0  0  0  0  0  0  0  0
   -2.4271    1.0969   -0.4597 C   0  0  2  0  0  0  0  0  0  0  0  0
   -1.3650    0.8832   -0.5802 H   0  0  0  0  0  0  0  0  0  0  0  0
   -2.8109    0.9703    0.9921 C   0  0  0  0  0  0  0  0  0  0  0  0
   -1.9531    0.9169    1.8414 O   0  0  0  0  0  0  0  0  0  0  0  0
   -4.3319    5.5121    0.3634 N   0  0  0  0  0  0  0  0  0  0  0  0
   -5.5525    6.5639   -0.0189 S   0  0  0  0  0  0  0  0  0  0  0  0
   -5.9768    7.1545    1.2018 O   0  0  0  0  0  0  0  0  0  0  0  0
   -5.0933    7.3362   -1.1198 O   0  0  0  0  0  0  0  0  0  0  0  0
   -6.9047    5.6003   -0.6089 C   0  0  0  0  0  0  0  0  0  0  0  0
   -7.0042    5.3183   -1.9701 C   0  0  0  0  0  0  0  0  0  0  0  0
   -8.0329    4.5724   -2.4578 C   0  0  0  0  0  0  0  0  0  0  0  0
   -9.0175    4.0877   -1.5799 C   0  0  0  0  0  0  0  0  0  0  0  0
  -10.0979    3.3200   -2.0473 C   0  0  0  0  0  0  0  0  0  0  0  0
  -11.0325    2.8672   -1.1678 C   0  0  0  0  0  0  0  0  0  0  0  0
  -10.9359    3.1538    0.1927 C   0  0  0  0  0  0  0  0  0  0  0  0
   -9.9040    3.8944    0.6813 C   0  0  0  0  0  0  0  0  0  0  0  0
   -8.9192    4.3791   -0.1964 C   0  0  0  0  0  0  0  0  0  0  0  0
   -7.8391    5.1474    0.2707 C   0  0  0  0  0  0  0  0  0  0  0  0
   -3.6966   11.5201   -1.4910 N   0  0  0  0  0  0  0  0  0  0  0  0
   -3.7876   10.0509   -3.5356 H   0  0  0  0  0  0  0  0  0  0  0  0
   -3.6255    7.9848   -4.8603 H   0  0  0  0  0  0  0  0  0  0  0  0
   -2.9931    5.8691   -3.7753 H   0  0  0  0  0  0  0  0  0  0  0  0
   -2.6958    7.8595   -0.0169 H   0  0  0  0  0  0  0  0  0  0  0  0
   -1.7779    5.6355   -0.3223 H   0  0  0  0  0  0  0  0  0  0  0  0
   -1.9066    4.8042   -1.8909 H   0  0  0  0  0  0  0  0  0  0  0  0
   -1.2461    2.9442   -2.3508 H   0  0  0  0  0  0  0  0  0  0  0  0
   -2.8329    3.7024   -2.6225 H   0  0  0  0  0  0  0  0  0  0  0  0
   -2.3046    2.8524   -4.9665 H   0  0  0  0  0  0  0  0  0  0  0  0
   -2.8907    1.0750   -6.5595 H   0  0  0  0  0  0  0  0  0  0  0  0
   -3.6190   -1.1286   -5.7247 H   0  0  0  0  0  0  0  0  0  0  0  0
   -3.7671   -1.5339   -3.3071 H   0  0  0  0  0  0  0  0  0  0  0  0
   -4.2973    0.1911   -1.0071 H   0  0  0  0  0  0  0  0  0  0  0  0
   -2.8946   -0.8942   -1.1176 H   0  0  0  0  0  0  0  0  0  0  0  0
   -4.0402    5.4216    1.2840 H   0  0  0  0  0  0  0  0  0  0  0  0
   -6.2515    5.6936   -2.6476 H   0  0  0  0  0  0  0  0  0  0  0  0
   -8.0951    4.3586   -3.5146 H   0  0  0  0  0  0  0  0  0  0  0  0
  -10.1857    3.0901   -3.0989 H   0  0  0  0  0  0  0  0  0  0  0  0
  -11.8616    2.2771   -1.5296 H   0  0  0  0  0  0  0  0  0  0  0  0
  -11.6915    2.7828    0.8695 H   0  0  0  0  0  0  0  0  0  0  0  0
   -9.8423    4.1089    1.7380 H   0  0  0  0  0  0  0  0  0  0  0  0
   -7.7511    5.3771    1.3224 H   0  0  0  0  0  0  0  0  0  0  0  0
   -3.8796   11.5431   -2.4433 H   0  0  0  0  0  0  0  0  0  0  0  0
   -3.7592   12.3329   -0.9653 H   0  0  0  0  0  0  0  0  0  0  0  0
   -3.0859   10.2349    0.4092 N   0  3  0  0  0  0  0  0  0  0  0  0
   -2.8300    9.3266    0.8139 H   0  0  0  0  0  0  0  0  0  0  0  0
   -4.1058    0.9168    1.3417 O   0  5  0  0  0  0  0  0  0  0  0  0
  1 66  1  0  0  0  0
  2  3  1  0  0  0  0
  2 41  1  0  0  0  0
  2 66  2  0  0  0  0
  3  8  2  0  0  0  0
  3  4  1  0  0  0  0
  4  5  2  0  0  0  0
  4 42  1  0  0  0  0
  5  6  1  0  0  0  0
  5 43  1  0  0  0  0
  6  7  2  0  0  0  0
  6 44  1  0  0  0  0
  7  8  1  0  0  0  0
  7  9  1  0  0  0  0
  8 45  1  0  0  0  0
  9 10  1  0  0  0  0
  9 46  1  0  0  0  0
  9 47  1  0  0  0  0
 10 11  1  0  0  0  0
 10 12  1  0  0  0  0
 10 27  1  0  0  0  0
 12 13  2  0  0  0  0
 12 14  1  0  0  0  0
 14 23  1  0  0  0  0
 14 15  1  0  0  0  0
 15 16  1  0  0  0  0
 15 48  1  0  0  0  0
 15 49  1  0  0  0  0
 16 21  2  0  0  0  0
 16 17  1  0  0  0  0
 17 18  2  0  0  0  0
 17 50  1  0  0  0  0
 18 19  1  0  0  0  0
 18 51  1  0  0  0  0
 19 20  2  0  0  0  0
 19 52  1  0  0  0  0
 20 21  1  0  0  0  0
 20 53  1  0  0  0  0
 21 22  1  0  0  0  0
 22 23  1  0  0  0  0
 22 54  1  0  0  0  0
 22 55  1  0  0  0  0
 23 24  1  0  0  0  0
 23 25  1  0  0  0  0
 25 26  2  0  0  0  0
 25 68  1  0  0  0  0
 27 28  1  0  0  0  0
 27 56  1  0  0  0  0
 28 29  2  0  0  0  0
 28 30  2  0  0  0  0
 28 31  1  0  0  0  0
 31 40  2  0  0  0  0
 31 32  1  0  0  0  0
 32 33  2  0  0  0  0
 32 57  1  0  0  0  0
 33 34  1  0  0  0  0
 33 58  1  0  0  0  0
 34 39  2  0  0  0  0
 34 35  1  0  0  0  0
 35 36  2  0  0  0  0
 35 59  1  0  0  0  0
 36 37  1  0  0  0  0
 36 60  1  0  0  0  0
 37 38  2  0  0  0  0
 37 61  1  0  0  0  0
 38 39  1  0  0  0  0
 38 62  1  0  0  0  0
 39 40  1  0  0  0  0
 40 63  1  0  0  0  0
 41 64  1  0  0  0  0
 41 65  1  0  0  0  0
 66 67  1  0  0  0  0
M  CHG  2  66   1  68  -1
M  END
$$$$
ZINC03834124
  -OEChem-08230709403D

 65 68  0     1  0  0  0  0  0999 V2000
    3.8335   12.3439    0.2446 H   0  0  0  0  0  0  0  0  0  0  0  0
    1.8770   12.8659    0.0340 C   0  0  0  0  0  0  0  0  0  0  0  0
    0.6173   12.4723   -0.6378 C   0  0  0  0  0  0  0  0  0  0  0  0
   -0.5439   13.2198   -0.4417 C   0  0  0  0  0  0  0  0  0  0  0  0
   -1.7144   12.8485   -1.0705 C   0  0  0  0  0  0  0  0  0  0  0  0
   -1.7366   11.7404   -1.8989 C   0  0  0  0  0  0  0  0  0  0  0  0
   -0.5896   10.9919   -2.0928 C   0  0  0  0  0  0  0  0  0  0  0  0
    0.5873   11.3534   -1.4691 C   0  0  0  0  0  0  0  0  0  0  0  0
   -0.6238    9.7829   -2.9917 C   0  0  0  0  0  0  0  0  0  0  0  0
   -0.9789    8.5440   -2.1669 C   0  0  1  0  0  0  0  0  0  0  0  0
   -1.9452    8.6929   -1.6852 H   0  0  0  0  0  0  0  0  0  0  0  0
   -1.0488    7.3411   -3.0721 C   0  0  0  0  0  0  0  0  0  0  0  0
   -0.0873    6.6106   -3.1852 O   0  0  0  0  0  0  0  0  0  0  0  0
   -2.1799    7.0772   -3.7557 N   0  0  0  0  0  0  0  0  0  0  0  0
   -2.2533    5.8582   -4.5298 C   0  0  0  0  0  0  0  0  0  0  0  0
   -1.7263    6.1103   -5.9581 C   0  0  0  0  0  0  0  0  0  0  0  0
   -2.6789    6.9370   -6.7148 C   0  0  0  0  0  0  0  0  0  0  0  0
   -2.8957    8.3329   -6.1386 C   0  0  0  0  0  0  0  0  0  0  0  0
   -3.9499    8.2709   -5.0610 C   0  0  0  0  0  0  0  0  0  0  0  0
   -3.2903    8.0472   -3.6880 C   0  0  0  0  0  0  0  0  0  0  0  0
    0.0481    8.3271   -1.1449 N   0  0  0  0  0  0  0  0  0  0  0  0
   -0.3749    7.7280    0.3398 S   0  0  0  0  0  0  0  0  0  0  0  0
   -1.4775    8.5024    0.7911 O   0  0  0  0  0  0  0  0  0  0  0  0
    0.8279    7.6074    1.0869 O   0  0  0  0  0  0  0  0  0  0  0  0
   -0.9780    6.0916    0.0888 C   0  0  0  0  0  0  0  0  0  0  0  0
   -0.0902    5.0181    0.1349 C   0  0  0  0  0  0  0  0  0  0  0  0
   -0.5232    3.7419   -0.0547 C   0  0  0  0  0  0  0  0  0  0  0  0
   -1.8854    3.4993   -0.3010 C   0  0  0  0  0  0  0  0  0  0  0  0
   -2.3699    2.1954   -0.5021 C   0  0  0  0  0  0  0  0  0  0  0  0
   -3.6955    1.9987   -0.7387 C   0  0  0  0  0  0  0  0  0  0  0  0
   -4.5824    3.0726   -0.7902 C   0  0  0  0  0  0  0  0  0  0  0  0
   -4.1503    4.3482   -0.5945 C   0  0  0  0  0  0  0  0  0  0  0  0
   -2.7881    4.5908   -0.3480 C   0  0  0  0  0  0  0  0  0  0  0  0
   -2.3037    5.8947   -0.1478 C   0  0  0  0  0  0  0  0  0  0  0  0
    1.9035   13.9720    0.8550 N   0  0  0  0  0  0  0  0  0  0  0  0
   -0.5266   14.0877    0.2009 H   0  0  0  0  0  0  0  0  0  0  0  0
   -2.6142   13.4263   -0.9193 H   0  0  0  0  0  0  0  0  0  0  0  0
   -2.6541   11.4562   -2.3925 H   0  0  0  0  0  0  0  0  0  0  0  0
    1.4831   10.7706   -1.6245 H   0  0  0  0  0  0  0  0  0  0  0  0
    0.3545    9.6447   -3.4522 H   0  0  0  0  0  0  0  0  0  0  0  0
   -1.3739    9.9291   -3.7689 H   0  0  0  0  0  0  0  0  0  0  0  0
   -1.6450    5.0890   -4.0540 H   0  0  0  0  0  0  0  0  0  0  0  0
   -3.2890    5.5220   -4.5799 H   0  0  0  0  0  0  0  0  0  0  0  0
   -1.5920    5.1563   -6.4680 H   0  0  0  0  0  0  0  0  0  0  0  0
   -0.7679    6.6262   -5.8996 H   0  0  0  0  0  0  0  0  0  0  0  0
   -3.6388    6.4212   -6.7427 H   0  0  0  0  0  0  0  0  0  0  0  0
   -2.3115    7.0373   -7.7361 H   0  0  0  0  0  0  0  0  0  0  0  0
   -3.2243    9.0062   -6.9303 H   0  0  0  0  0  0  0  0  0  0  0  0
   -1.9619    8.7002   -5.7130 H   0  0  0  0  0  0  0  0  0  0  0  0
   -4.6341    7.4488   -5.2714 H   0  0  0  0  0  0  0  0  0  0  0  0
   -4.5053    9.2087   -5.0467 H   0  0  0  0  0  0  0  0  0  0  0  0
   -4.0417    7.6770   -2.9904 H   0  0  0  0  0  0  0  0  0  0  0  0
   -2.9066    8.9995   -3.3219 H   0  0  0  0  0  0  0  0  0  0  0  0
    0.9759    8.5344   -1.3378 H   0  0  0  0  0  0  0  0  0  0  0  0
    0.9571    5.2018    0.3244 H   0  0  0  0  0  0  0  0  0  0  0  0
    0.1763    2.9200   -0.0164 H   0  0  0  0  0  0  0  0  0  0  0  0
   -1.6935    1.3539   -0.4694 H   0  0  0  0  0  0  0  0  0  0  0  0
   -4.0651    0.9957   -0.8933 H   0  0  0  0  0  0  0  0  0  0  0  0
   -5.6290    2.8894   -0.9842 H   0  0  0  0  0  0  0  0  0  0  0  0
   -4.8496    5.1702   -0.6337 H   0  0  0  0  0  0  0  0  0  0  0  0
   -2.9799    6.7361   -0.1808 H   0  0  0  0  0  0  0  0  0  0  0  0
    1.0970   14.4931    0.9930 H   0  0  0  0  0  0  0  0  0  0  0  0
    2.7287   14.2298    1.2950 H   0  0  0  0  0  0  0  0  0  0  0  0
    2.9423   12.1137   -0.1952 N   0  3  0  0  0  0  0  0  0  0  0  0
    2.8714   11.2987   -0.8157 H   0  0  0  0  0  0  0  0  0  0  0  0
  1 64  1  0  0  0  0
  2  3  1  0  0  0  0
  2 35  1  0  0  0  0
  2 64  2  0  0  0  0
  3  8  2  0  0  0  0
  3  4  1  0  0  0  0
  4  5  2  0  0  0  0
  4 36  1  0  0  0  0
  5  6  1  0  0  0  0
  5 37  1  0  0  0  0
  6  7  2  0  0  0  0
  6 38  1  0  0  0  0
  7  8  1  0  0  0  0
  7  9  1  0  0  0  0
  8 39  1  0  0  0  0
  9 10  1  0  0  0  0
  9 40  1  0  0  0  0
  9 41  1  0  0  0  0
 10 11  1  0  0  0  0
 10 12  1  0  0  0  0
 10 21  1  0  0  0  0
 12 13  2  0  0  0  0
 12 14  1  0  0  0  0
 14 20  1  0  0  0  0
 14 15  1  0  0  0  0
 15 16  1  0  0  0  0
 15 42  1  0  0  0  0
 15 43  1  0  0  0  0
 16 17  1  0  0  0  0
 16 44  1  0  0  0  0
 16 45  1  0  0  0  0
 17 18  1  0  0  0  0
 17 46  1  0  0  0  0
 17 47  1  0  0  0  0
 18 19  1  0  0  0  0
 18 48  1  0  0  0  0
 18 49  1  0  0  0  0
 19 20  1  0  0  0  0
 19 50  1  0  0  0  0
 19 51  1  0  0  0  0
 20 52  1  0  0  0  0
 20 53  1  0  0  0  0
 21 22  1  0  0  0  0
 21 54  1  0  0  0  0
 22 23  2  0  0  0  0
 22 24  2  0  0  0  0
 22 25  1  0  0  0  0
 25 34  2  0  0  0  0
 25 26  1  0  0  0  0
 26 27  2  0  0  0  0
 26 55  1  0  0  0  0
 27 28  1  0  0  0  0
 27 56  1  0  0  0  0
 28 33  2  0  0  0  0
 28 29  1  0  0  0  0
 29 30  2  0  0  0  0
 29 57  1  0  0  0  0
 30 31  1  0  0  0  0
 30 58  1  0  0  0  0
 31 32  2  0  0  0  0
 31 59  1  0  0  0  0
 32 33  1  0  0  0  0
 32 60  1  0  0  0  0
 33 34  1  0  0  0  0
 34 61  1  0  0  0  0
 35 62  1  0  0  0  0
 35 63  1  0  0  0  0
 64 65  1  0  0  0  0
M  CHG  1  64   1
M  END
$$$$
ZINC03834125
  -OEChem-08230709403D

 71 75  0     1  0  0  0  0  0999 V2000
   -3.5016   14.1347   -2.1633 H   0  0  0  0  0  0  0  0  0  0  0  0
   -1.6357   13.3532   -2.3905 C   0  0  0  0  0  0  0  0  0  0  0  0
   -0.5624   12.6338   -1.6671 C   0  0  0  0  0  0  0  0  0  0  0  0
    0.6223   12.2999   -2.3232 C   0  0  0  0  0  0  0  0  0  0  0  0
    1.6188   11.6300   -1.6437 C   0  0  0  0  0  0  0  0  0  0  0  0
    1.4470   11.2944   -0.3125 C   0  0  0  0  0  0  0  0  0  0  0  0
    0.2722   11.6177    0.3421 C   0  0  0  0  0  0  0  0  0  0  0  0
   -0.7319   12.2877   -0.3270 C   0  0  0  0  0  0  0  0  0  0  0  0
    0.0907   11.2429    1.7905 C   0  0  0  0  0  0  0  0  0  0  0  0
   -0.5468    9.8551    1.8822 C   0  0  1  0  0  0  0  0  0  0  0  0
    0.1111    9.1216    1.4159 H   0  0  0  0  0  0  0  0  0  0  0  0
   -0.7566    9.4933    3.3299 C   0  0  0  0  0  0  0  0  0  0  0  0
   -1.8698    9.5321    3.8095 O   0  0  0  0  0  0  0  0  0  0  0  0
    0.2930    9.1267    4.0918 N   0  0  0  0  0  0  0  0  0  0  0  0
    1.6614    9.1879    3.5604 C   0  0  0  0  0  0  0  0  0  0  0  0
    2.3269    7.8248    3.7412 C   0  0  0  0  0  0  0  0  0  0  0  0
    2.2412    7.4087    5.2115 C   0  0  0  0  0  0  0  0  0  0  0  0
    0.7726    7.2899    5.6250 C   0  0  0  0  0  0  0  0  0  0  0  0
    0.0900    8.6522    5.4674 C   0  0  0  0  0  0  0  0  0  0  0  0
    2.9349    6.0582    5.4002 C   0  0  0  0  0  0  0  0  0  0  0  0
   -1.8374    9.8638    1.1890 N   0  0  0  0  0  0  0  0  0  0  0  0
   -1.9333    9.3694   -0.3886 S   0  0  0  0  0  0  0  0  0  0  0  0
   -0.9016   10.0491   -1.0906 O   0  0  0  0  0  0  0  0  0  0  0  0
   -3.3009    9.4668   -0.7623 O   0  0  0  0  0  0  0  0  0  0  0  0
   -1.5224    7.6564   -0.4237 C   0  0  0  0  0  0  0  0  0  0  0  0
   -2.5184    6.7080   -0.2791 C   0  0  0  0  0  0  0  0  0  0  0  0
   -2.2105    5.3590   -0.3046 C   0  0  0  0  0  0  0  0  0  0  0  0
   -0.8905    4.9519   -0.4763 C   0  0  0  0  0  0  0  0  0  0  0  0
    0.1224    5.9162   -0.6229 C   0  0  0  0  0  0  0  0  0  0  0  0
   -0.2049    7.2688   -0.5953 C   0  0  0  0  0  0  0  0  0  0  0  0
    1.5264    5.4926   -0.8068 C   0  0  0  0  0  0  0  0  0  0  0  0
    2.4017    6.3258   -0.9334 O   0  0  0  0  0  0  0  0  0  0  0  0
    1.8644    4.0541   -0.8355 C   0  0  0  0  0  0  0  0  0  0  0  0
    3.1840    3.6462   -1.0079 C   0  0  0  0  0  0  0  0  0  0  0  0
    3.4913    2.2969   -1.0340 C   0  0  0  0  0  0  0  0  0  0  0  0
    2.4949    1.3487   -0.8903 C   0  0  0  0  0  0  0  0  0  0  0  0
    1.1770    1.7368   -0.7233 C   0  0  0  0  0  0  0  0  0  0  0  0
    0.8513    3.0898   -0.6889 C   0  0  0  0  0  0  0  0  0  0  0  0
   -0.5528    3.5133   -0.5053 C   0  0  0  0  0  0  0  0  0  0  0  0
   -1.4279    2.6801   -0.3780 O   0  0  0  0  0  0  0  0  0  0  0  0
   -1.4653   13.6938   -3.7147 N   0  0  0  0  0  0  0  0  0  0  0  0
    0.7594   12.5656   -3.3610 H   0  0  0  0  0  0  0  0  0  0  0  0
    2.5364   11.3706   -2.1509 H   0  0  0  0  0  0  0  0  0  0  0  0
    2.2317   10.7738    0.2164 H   0  0  0  0  0  0  0  0  0  0  0  0
   -1.6471   12.5433    0.1863 H   0  0  0  0  0  0  0  0  0  0  0  0
   -0.5567   11.9729    2.2762 H   0  0  0  0  0  0  0  0  0  0  0  0
    1.0610   11.2306    2.2869 H   0  0  0  0  0  0  0  0  0  0  0  0
    1.6309    9.4404    2.5005 H   0  0  0  0  0  0  0  0  0  0  0  0
    2.2302    9.9438    4.1019 H   0  0  0  0  0  0  0  0  0  0  0  0
    3.3729    7.8866    3.4410 H   0  0  0  0  0  0  0  0  0  0  0  0
    1.8137    7.0875    3.1239 H   0  0  0  0  0  0  0  0  0  0  0  0
    2.7331    8.1593    5.8303 H   0  0  0  0  0  0  0  0  0  0  0  0
    0.7122    6.9709    6.6655 H   0  0  0  0  0  0  0  0  0  0  0  0
    0.2739    6.5575    4.9900 H   0  0  0  0  0  0  0  0  0  0  0  0
    0.5280    9.3635    6.1677 H   0  0  0  0  0  0  0  0  0  0  0  0
   -0.9772    8.5514    5.6654 H   0  0  0  0  0  0  0  0  0  0  0  0
    2.4428    5.3074    4.7819 H   0  0  0  0  0  0  0  0  0  0  0  0
    3.9809    6.1426    5.1058 H   0  0  0  0  0  0  0  0  0  0  0  0
    2.8750    5.7622    6.4476 H   0  0  0  0  0  0  0  0  0  0  0  0
   -2.6357   10.1591    1.6542 H   0  0  0  0  0  0  0  0  0  0  0  0
   -3.5432    7.0220   -0.1458 H   0  0  0  0  0  0  0  0  0  0  0  0
   -2.9930    4.6233   -0.1911 H   0  0  0  0  0  0  0  0  0  0  0  0
    0.5680    8.0148   -0.7072 H   0  0  0  0  0  0  0  0  0  0  0  0
    3.9671    4.3814   -1.1207 H   0  0  0  0  0  0  0  0  0  0  0  0
    4.5157    1.9825   -1.1678 H   0  0  0  0  0  0  0  0  0  0  0  0
    2.7462    0.2986   -0.9130 H   0  0  0  0  0  0  0  0  0  0  0  0
    0.4031    0.9913   -0.6156 H   0  0  0  0  0  0  0  0  0  0  0  0
   -0.6424   13.4623   -4.1730 H   0  0  0  0  0  0  0  0  0  0  0  0
   -2.1684   14.1651   -4.1885 H   0  0  0  0  0  0  0  0  0  0  0  0
   -2.7340   13.6401   -1.7089 N   0  3  0  0  0  0  0  0  0  0  0  0
   -2.8129   13.3646   -0.7229 H   0  0  0  0  0  0  0  0  0  0  0  0
  1 70  1  0  0  0  0
  2  3  1  0  0  0  0
  2 41  1  0  0  0  0
  2 70  2  0  0  0  0
  3  8  2  0  0  0  0
  3  4  1  0  0  0  0
  4  5  2  0  0  0  0
  4 42  1  0  0  0  0
  5  6  1  0  0  0  0
  5 43  1  0  0  0  0
  6  7  2  0  0  0  0
  6 44  1  0  0  0  0
  7  8  1  0  0  0  0
  7  9  1  0  0  0  0
  8 45  1  0  0  0  0
  9 10  1  0  0  0  0
  9 46  1  0  0  0  0
  9 47  1  0  0  0  0
 10 11  1  0  0  0  0
 10 12  1  0  0  0  0
 10 21  1  0  0  0  0
 12 13  2  0  0  0  0
 12 14  1  0  0  0  0
 14 19  1  0  0  0  0
 14 15  1  0  0  0  0
 15 16  1  0  0  0  0
 15 48  1  0  0  0  0
 15 49  1  0  0  0  0
 16 17  1  0  0  0  0
 16 50  1  0  0  0  0
 16 51  1  0  0  0  0
 17 18  1  0  0  0  0
 17 20  1  0  0  0  0
 17 52  1  0  0  0  0
 18 19  1  0  0  0  0
 18 53  1  0  0  0  0
 18 54  1  0  0  0  0
 19 55  1  0  0  0  0
 19 56  1  0  0  0  0
 20 57  1  0  0  0  0
 20 58  1  0  0  0  0
 20 59  1  0  0  0  0
 21 22  1  0  0  0  0
 21 60  1  0  0  0  0
 22 23  2  0  0  0  0
 22 24  2  0  0  0  0
 22 25  1  0  0  0  0
 25 30  2  0  0  0  0
 25 26  1  0  0  0  0
 26 27  2  0  0  0  0
 26 61  1  0  0  0  0
 27 28  1  0  0  0  0
 27 62  1  0  0  0  0
 28 39  1  0  0  0  0
 28 29  2  0  0  0  0
 29 30  1  0  0  0  0
 29 31  1  0  0  0  0
 30 63  1  0  0  0  0
 31 32  2  0  0  0  0
 31 33  1  0  0  0  0
 33 38  2  0  0  0  0
 33 34  1  0  0  0  0
 34 35  2  0  0  0  0
 34 64  1  0  0  0  0
 35 36  1  0  0  0  0
 35 65  1  0  0  0  0
 36 37  2  0  0  0  0
 36 66  1  0  0  0  0
 37 38  1  0  0  0  0
 37 67  1  0  0  0  0
 38 39  1  0  0  0  0
 39 40  2  0  0  0  0
 41 68  1  0  0  0  0
 41 69  1  0  0  0  0
 70 71  1  0  0  0  0
M  CHG  1  70   1
M  END
$$$$
ZINC03834126
  -OEChem-08230709403D

 62 64  0     1  0  0  0  0  0999 V2000
   -2.0294    3.2254   -0.3442 H   0  0  0  0  0  0  0  0  0  0  0  0
   -0.3904    2.0293   -0.1776 C   0  0  0  0  0  0  0  0  0  0  0  0
    0.0300    0.6138   -0.0658 C   0  0  0  0  0  0  0  0  0  0  0  0
    1.3841    0.2902    0.0190 C   0  0  0  0  0  0  0  0  0  0  0  0
    1.7692   -1.0301    0.1296 C   0  0  0  0  0  0  0  0  0  0  0  0
    0.8160   -2.0328    0.1438 C   0  0  0  0  0  0  0  0  0  0  0  0
   -0.5280   -1.7185    0.0540 C   0  0  0  0  0  0  0  0  0  0  0  0
   -0.9260   -0.4011   -0.0505 C   0  0  0  0  0  0  0  0  0  0  0  0
   -1.5598   -2.8167    0.0706 C   0  0  0  0  0  0  0  0  0  0  0  0
   -1.8348   -3.2800   -1.3614 C   0  0  1  0  0  0  0  0  0  0  0  0
   -0.8968   -3.5663   -1.8371 H   0  0  0  0  0  0  0  0  0  0  0  0
   -2.7671   -4.4637   -1.3362 C   0  0  0  0  0  0  0  0  0  0  0  0
   -3.9544   -4.3047   -1.5262 O   0  0  0  0  0  0  0  0  0  0  0  0
   -2.2816   -5.6990   -1.1024 N   0  0  0  0  0  0  0  0  0  0  0  0
   -0.8647   -5.8954   -0.7670 C   0  0  0  0  0  0  0  0  0  0  0  0
   -0.2641   -6.9222   -1.7255 C   0  0  0  0  0  0  0  0  0  0  0  0
   -1.1023   -8.2021   -1.6889 C   0  0  0  0  0  0  0  0  0  0  0  0
   -2.5304   -7.8920   -2.1434 C   0  0  0  0  0  0  0  0  0  0  0  0
   -3.1578   -6.8756   -1.1841 C   0  0  0  0  0  0  0  0  0  0  0  0
   -0.4843   -9.2430   -2.6246 C   0  0  0  0  0  0  0  0  0  0  0  0
   -2.4525   -2.1879   -2.1178 N   0  0  0  0  0  0  0  0  0  0  0  0
   -2.1053   -1.9942   -3.7254 S   0  0  0  0  0  0  0  0  0  0  0  0
   -2.8685   -0.8829   -4.1747 O   0  0  0  0  0  0  0  0  0  0  0  0
   -0.6901   -2.0444   -3.8441 O   0  0  0  0  0  0  0  0  0  0  0  0
   -2.7319   -3.4092   -4.5678 C   0  0  0  0  0  0  0  0  0  0  0  0
   -1.9288   -4.5204   -4.7444 C   0  0  0  0  0  0  0  0  0  0  0  0
   -2.4219   -5.6321   -5.4016 C   0  0  0  0  0  0  0  0  0  0  0  0
   -3.7149   -5.6291   -5.8905 C   0  0  0  0  0  0  0  0  0  0  0  0
   -4.5164   -4.5160   -5.7181 C   0  0  0  0  0  0  0  0  0  0  0  0
   -4.0248   -3.4060   -5.0572 C   0  0  0  0  0  0  0  0  0  0  0  0
   -4.2509   -6.8392   -6.6110 C   0  0  0  0  0  0  0  0  0  0  0  0
    0.5565    3.0301   -0.1924 N   0  0  0  0  0  0  0  0  0  0  0  0
    2.1292    1.0718    0.0031 H   0  0  0  0  0  0  0  0  0  0  0  0
    2.8171   -1.2816    0.2005 H   0  0  0  0  0  0  0  0  0  0  0  0
    1.1226   -3.0651    0.2257 H   0  0  0  0  0  0  0  0  0  0  0  0
   -1.9757   -0.1569   -0.1198 H   0  0  0  0  0  0  0  0  0  0  0  0
   -1.1880   -3.6557    0.6588 H   0  0  0  0  0  0  0  0  0  0  0  0
   -2.4821   -2.4421    0.5148 H   0  0  0  0  0  0  0  0  0  0  0  0
   -0.3314   -4.9499   -0.8657 H   0  0  0  0  0  0  0  0  0  0  0  0
   -0.7786   -6.2607    0.2563 H   0  0  0  0  0  0  0  0  0  0  0  0
    0.7587   -7.1483   -1.4241 H   0  0  0  0  0  0  0  0  0  0  0  0
   -0.2646   -6.5158   -2.7370 H   0  0  0  0  0  0  0  0  0  0  0  0
   -1.1219   -8.5942   -0.6720 H   0  0  0  0  0  0  0  0  0  0  0  0
   -3.1206   -8.8083   -2.1394 H   0  0  0  0  0  0  0  0  0  0  0  0
   -2.5094   -7.4765   -3.1508 H   0  0  0  0  0  0  0  0  0  0  0  0
   -3.2625   -7.3225   -0.1955 H   0  0  0  0  0  0  0  0  0  0  0  0
   -4.1371   -6.5766   -1.5579 H   0  0  0  0  0  0  0  0  0  0  0  0
   -0.4652   -8.8514   -3.6417 H   0  0  0  0  0  0  0  0  0  0  0  0
    0.5327   -9.4641   -2.3011 H   0  0  0  0  0  0  0  0  0  0  0  0
   -1.0805  -10.1552   -2.5978 H   0  0  0  0  0  0  0  0  0  0  0  0
   -3.0647   -1.5783   -1.6770 H   0  0  0  0  0  0  0  0  0  0  0  0
   -0.9173   -4.5212   -4.3660 H   0  0  0  0  0  0  0  0  0  0  0  0
   -1.7958   -6.5019   -5.5359 H   0  0  0  0  0  0  0  0  0  0  0  0
   -5.5266   -4.5136   -6.1002 H   0  0  0  0  0  0  0  0  0  0  0  0
   -4.6509   -2.5362   -4.9229 H   0  0  0  0  0  0  0  0  0  0  0  0
   -4.0421   -6.7495   -7.6771 H   0  0  0  0  0  0  0  0  0  0  0  0
   -3.7705   -7.7366   -6.2210 H   0  0  0  0  0  0  0  0  0  0  0  0
   -5.3277   -6.9070   -6.4561 H   0  0  0  0  0  0  0  0  0  0  0  0
    1.4985    2.8075   -0.1296 H   0  0  0  0  0  0  0  0  0  0  0  0
    0.2811    3.9573   -0.2657 H   0  0  0  0  0  0  0  0  0  0  0  0
   -1.6901    2.2666   -0.2654 N   0  3  0  0  0  0  0  0  0  0  0  0
   -2.3565    1.4855   -0.2542 H   0  0  0  0  0  0  0  0  0  0  0  0
  1 61  1  0  0  0  0
  2  3  1  0  0  0  0
  2 32  1  0  0  0  0
  2 61  2  0  0  0  0
  3  8  2  0  0  0  0
  3  4  1  0  0  0  0
  4  5  2  0  0  0  0
  4 33  1  0  0  0  0
  5  6  1  0  0  0  0
  5 34  1  0  0  0  0
  6  7  2  0  0  0  0
  6 35  1  0  0  0  0
  7  8  1  0  0  0  0
  7  9  1  0  0  0  0
  8 36  1  0  0  0  0
  9 10  1  0  0  0  0
  9 37  1  0  0  0  0
  9 38  1  0  0  0  0
 10 11  1  0  0  0  0
 10 12  1  0  0  0  0
 10 21  1  0  0  0  0
 12 13  2  0  0  0  0
 12 14  1  0  0  0  0
 14 19  1  0  0  0  0
 14 15  1  0  0  0  0
 15 16  1  0  0  0  0
 15 39  1  0  0  0  0
 15 40  1  0  0  0  0
 16 17  1  0  0  0  0
 16 41  1  0  0  0  0
 16 42  1  0  0  0  0
 17 18  1  0  0  0  0
 17 20  1  0  0  0  0
 17 43  1  0  0  0  0
 18 19  1  0  0  0  0
 18 44  1  0  0  0  0
 18 45  1  0  0  0  0
 19 46  1  0  0  0  0
 19 47  1  0  0  0  0
 20 48  1  0  0  0  0
 20 49  1  0  0  0  0
 20 50  1  0  0  0  0
 21 22  1  0  0  0  0
 21 51  1  0  0  0  0
 22 23  2  0  0  0  0
 22 24  2  0  0  0  0
 22 25  1  0  0  0  0
 25 30  2  0  0  0  0
 25 26  1  0  0  0  0
 26 27  2  0  0  0  0
 26 52  1  0  0  0  0
 27 28  1  0  0  0  0
 27 53  1  0  0  0  0
 28 29  2  0  0  0  0
 28 31  1  0  0  0  0
 29 30  1  0  0  0  0
 29 54  1  0  0  0  0
 30 55  1  0  0  0  0
 31 56  1  0  0  0  0
 31 57  1  0  0  0  0
 31 58  1  0  0  0  0
 32 59  1  0  0  0  0
 32 60  1  0  0  0  0
 61 62  1  0  0  0  0
M  CHG  1  61   1
M  END
$$$$
ZINC03834129
  -OEChem-08230709403D

 66 70  0     1  0  0  0  0  0999 V2000
   -1.4717    3.0476    0.0255 H   0  0  0  0  0  0  0  0  0  0  0  0
    0.0746    1.7234    0.0111 C   0  0  0  0  0  0  0  0  0  0  0  0
    0.3877    0.2760    0.0017 C   0  0  0  0  0  0  0  0  0  0  0  0
    1.7145   -0.1532   -0.0185 C   0  0  0  0  0  0  0  0  0  0  0  0
    2.0000   -1.5031   -0.0213 C   0  0  0  0  0  0  0  0  0  0  0  0
    0.9729   -2.4301   -0.0162 C   0  0  0  0  0  0  0  0  0  0  0  0
   -0.3450   -2.0105   -0.0014 C   0  0  0  0  0  0  0  0  0  0  0  0
   -0.6430   -0.6631    0.0073 C   0  0  0  0  0  0  0  0  0  0  0  0
   -1.4577   -3.0269    0.0046 C   0  0  0  0  0  0  0  0  0  0  0  0
   -1.8479   -3.3645   -1.4358 C   0  0  1  0  0  0  0  0  0  0  0  0
   -0.9643   -3.6906   -1.9846 H   0  0  0  0  0  0  0  0  0  0  0  0
   -2.8734   -4.4688   -1.4327 C   0  0  0  0  0  0  0  0  0  0  0  0
   -3.9677   -4.2815   -1.9209 O   0  0  0  0  0  0  0  0  0  0  0  0
   -2.5744   -5.6645   -0.8876 N   0  0  0  0  0  0  0  0  0  0  0  0
   -3.5558   -6.7619   -0.8631 C   0  0  0  0  0  0  0  0  0  0  0  0
   -3.0014   -7.8997   -1.7275 C   0  0  0  0  0  0  0  0  0  0  0  0
   -1.5634   -8.1831   -1.3813 C   0  0  0  0  0  0  0  0  0  0  0  0
   -1.0437   -9.4185   -1.7492 C   0  0  0  0  0  0  0  0  0  0  0  0
    0.2693   -9.7376   -1.4738 C   0  0  0  0  0  0  0  0  0  0  0  0
    1.0781   -8.8222   -0.8257 C   0  0  0  0  0  0  0  0  0  0  0  0
    0.5637   -7.5968   -0.4556 C   0  0  0  0  0  0  0  0  0  0  0  0
   -0.7589   -7.2757   -0.7296 C   0  0  0  0  0  0  0  0  0  0  0  0
   -1.2602   -5.9231   -0.2894 C   0  0  0  0  0  0  0  0  0  0  0  0
   -2.4121   -2.1760   -2.0803 N   0  0  0  0  0  0  0  0  0  0  0  0
   -1.4432   -1.1899   -2.9921 S   0  0  0  0  0  0  0  0  0  0  0  0
   -2.2766   -0.1554   -3.4966 O   0  0  0  0  0  0  0  0  0  0  0  0
   -0.2858   -0.9235   -2.2119 O   0  0  0  0  0  0  0  0  0  0  0  0
   -0.9074   -2.1285   -4.3838 C   0  0  0  0  0  0  0  0  0  0  0  0
    0.2740   -2.8636   -4.3022 C   0  0  0  0  0  0  0  0  0  0  0  0
    0.7131   -3.6034   -5.3567 C   0  0  0  0  0  0  0  0  0  0  0  0
   -0.0272   -3.6192   -6.5513 C   0  0  0  0  0  0  0  0  0  0  0  0
    0.3980   -4.3658   -7.6635 C   0  0  0  0  0  0  0  0  0  0  0  0
   -0.3447   -4.3575   -8.8039 C   0  0  0  0  0  0  0  0  0  0  0  0
   -1.5233   -3.6180   -8.8872 C   0  0  0  0  0  0  0  0  0  0  0  0
   -1.9656   -2.8832   -7.8307 C   0  0  0  0  0  0  0  0  0  0  0  0
   -1.2255   -2.8674   -6.6361 C   0  0  0  0  0  0  0  0  0  0  0  0
   -1.6503   -2.1203   -5.5240 C   0  0  0  0  0  0  0  0  0  0  0  0
    1.0952    2.6490    0.0055 N   0  0  0  0  0  0  0  0  0  0  0  0
    2.5171    0.5695   -0.0274 H   0  0  0  0  0  0  0  0  0  0  0  0
    3.0270   -1.8367   -0.0324 H   0  0  0  0  0  0  0  0  0  0  0  0
    1.2012   -3.4857   -0.0232 H   0  0  0  0  0  0  0  0  0  0  0  0
   -1.6725   -0.3366    0.0187 H   0  0  0  0  0  0  0  0  0  0  0  0
   -1.1210   -3.9313    0.5113 H   0  0  0  0  0  0  0  0  0  0  0  0
   -2.3213   -2.6171    0.5284 H   0  0  0  0  0  0  0  0  0  0  0  0
   -3.6960   -7.1085    0.1607 H   0  0  0  0  0  0  0  0  0  0  0  0
   -4.5061   -6.4159   -1.2697 H   0  0  0  0  0  0  0  0  0  0  0  0
   -3.0686   -7.6195   -2.7787 H   0  0  0  0  0  0  0  0  0  0  0  0
   -3.5948   -8.7981   -1.5575 H   0  0  0  0  0  0  0  0  0  0  0  0
   -1.6737  -10.1349   -2.2555 H   0  0  0  0  0  0  0  0  0  0  0  0
    0.6648  -10.7000   -1.7631 H   0  0  0  0  0  0  0  0  0  0  0  0
    2.1081   -9.0654   -0.6106 H   0  0  0  0  0  0  0  0  0  0  0  0
    1.1948   -6.8818    0.0511 H   0  0  0  0  0  0  0  0  0  0  0  0
   -0.5579   -5.1539   -0.6104 H   0  0  0  0  0  0  0  0  0  0  0  0
   -1.3463   -5.9042    0.7971 H   0  0  0  0  0  0  0  0  0  0  0  0
   -3.3530   -1.9666   -1.9729 H   0  0  0  0  0  0  0  0  0  0  0  0
    0.8472   -2.8495   -3.3870 H   0  0  0  0  0  0  0  0  0  0  0  0
    1.6284   -4.1711   -5.2778 H   0  0  0  0  0  0  0  0  0  0  0  0
    1.3092   -4.9434   -7.6134 H   0  0  0  0  0  0  0  0  0  0  0  0
   -0.0160   -4.9322   -9.6569 H   0  0  0  0  0  0  0  0  0  0  0  0
   -2.0937   -3.6281   -9.8042 H   0  0  0  0  0  0  0  0  0  0  0  0
   -2.8805   -2.3148   -7.9099 H   0  0  0  0  0  0  0  0  0  0  0  0
   -2.5613   -1.5424   -5.5742 H   0  0  0  0  0  0  0  0  0  0  0  0
    2.0187    2.3526   -0.0046 H   0  0  0  0  0  0  0  0  0  0  0  0
    0.8902    3.5971    0.0116 H   0  0  0  0  0  0  0  0  0  0  0  0
   -1.2052    2.0629    0.0190 N   0  3  0  0  0  0  0  0  0  0  0  0
   -1.9294    1.3350    0.0185 H   0  0  0  0  0  0  0  0  0  0  0  0
  1 65  1  0  0  0  0
  2  3  1  0  0  0  0
  2 38  1  0  0  0  0
  2 65  2  0  0  0  0
  3  8  2  0  0  0  0
  3  4  1  0  0  0  0
  4  5  2  0  0  0  0
  4 39  1  0  0  0  0
  5  6  1  0  0  0  0
  5 40  1  0  0  0  0
  6  7  2  0  0  0  0
  6 41  1  0  0  0  0
  7  8  1  0  0  0  0
  7  9  1  0  0  0  0
  8 42  1  0  0  0  0
  9 10  1  0  0  0  0
  9 43  1  0  0  0  0
  9 44  1  0  0  0  0
 10 11  1  0  0  0  0
 10 12  1  0  0  0  0
 10 24  1  0  0  0  0
 12 13  2  0  0  0  0
 12 14  1  0  0  0  0
 14 23  1  0  0  0  0
 14 15  1  0  0  0  0
 15 16  1  0  0  0  0
 15 45  1  0  0  0  0
 15 46  1  0  0  0  0
 16 17  1  0  0  0  0
 16 47  1  0  0  0  0
 16 48  1  0  0  0  0
 17 22  2  0  0  0  0
 17 18  1  0  0  0  0
 18 19  2  0  0  0  0
 18 49  1  0  0  0  0
 19 20  1  0  0  0  0
 19 50  1  0  0  0  0
 20 21  2  0  0  0  0
 20 51  1  0  0  0  0
 21 22  1  0  0  0  0
 21 52  1  0  0  0  0
 22 23  1  0  0  0  0
 23 53  1  0  0  0  0
 23 54  1  0  0  0  0
 24 25  1  0  0  0  0
 24 55  1  0  0  0  0
 25 26  2  0  0  0  0
 25 27  2  0  0  0  0
 25 28  1  0  0  0  0
 28 37  2  0  0  0  0
 28 29  1  0  0  0  0
 29 30  2  0  0  0  0
 29 56  1  0  0  0  0
 30 31  1  0  0  0  0
 30 57  1  0  0  0  0
 31 36  2  0  0  0  0
 31 32  1  0  0  0  0
 32 33  2  0  0  0  0
 32 58  1  0  0  0  0
 33 34  1  0  0  0  0
 33 59  1  0  0  0  0
 34 35  2  0  0  0  0
 34 60  1  0  0  0  0
 35 36  1  0  0  0  0
 35 61  1  0  0  0  0
 36 37  1  0  0  0  0
 37 62  1  0  0  0  0
 38 63  1  0  0  0  0
 38 64  1  0  0  0  0
 65 66  1  0  0  0  0
M  CHG  1  65   1
M  END
$$$$
ZINC03834131
  -OEChem-08230709403D

 61 64  0     1  0  0  0  0  0999 V2000
    1.4557   -1.5749   -0.0203 H   0  0  0  0  0  0  0  0  0  0  0  0
   -0.0905   -0.2509    0.0015 C   0  0  0  0  0  0  0  0  0  0  0  0
   -0.4035    1.1965    0.0123 C   0  0  0  0  0  0  0  0  0  0  0  0
   -1.7306    1.6258    0.0214 C   0  0  0  0  0  0  0  0  0  0  0  0
   -2.0158    2.9756    0.0371 C   0  0  0  0  0  0  0  0  0  0  0  0
   -0.9888    3.9027    0.0319 C   0  0  0  0  0  0  0  0  0  0  0  0
    0.3291    3.4831    0.0171 C   0  0  0  0  0  0  0  0  0  0  0  0
    0.6272    2.1357    0.0075 C   0  0  0  0  0  0  0  0  0  0  0  0
    1.4418    4.4995    0.0119 C   0  0  0  0  0  0  0  0  0  0  0  0
    1.8050    4.8506   -1.4323 C   0  0  1  0  0  0  0  0  0  0  0  0
    0.9115    5.1818   -1.9614 H   0  0  0  0  0  0  0  0  0  0  0  0
    2.8305    5.9550   -1.4380 C   0  0  0  0  0  0  0  0  0  0  0  0
    3.9114    5.7731   -1.9463 O   0  0  0  0  0  0  0  0  0  0  0  0
    2.5430    7.1407   -0.8784 O   0  0  0  0  0  0  0  0  0  0  0  0
    3.5783    8.1578   -0.9207 C   0  0  0  0  0  0  0  0  0  0  0  0
    3.0787    9.4112   -0.2493 C   0  0  0  0  0  0  0  0  0  0  0  0
    2.4277   10.3797   -0.9904 C   0  0  0  0  0  0  0  0  0  0  0  0
    1.9652   11.5272   -0.3737 C   0  0  0  0  0  0  0  0  0  0  0  0
    2.1627   11.7108    0.9820 C   0  0  0  0  0  0  0  0  0  0  0  0
    2.8188   10.7449    1.7220 C   0  0  0  0  0  0  0  0  0  0  0  0
    3.2766    9.5951    1.1063 C   0  0  0  0  0  0  0  0  0  0  0  0
    2.3570    3.6683   -2.0984 N   0  0  0  0  0  0  0  0  0  0  0  0
    1.3712    2.6909   -3.0012 S   0  0  0  0  0  0  0  0  0  0  0  0
    2.1950    1.6613   -3.5310 O   0  0  0  0  0  0  0  0  0  0  0  0
    0.2285    2.4171   -2.2021 O   0  0  0  0  0  0  0  0  0  0  0  0
    0.8095    3.6425   -4.3738 C   0  0  0  0  0  0  0  0  0  0  0  0
   -0.3700    4.3768   -4.2632 C   0  0  0  0  0  0  0  0  0  0  0  0
   -0.8287    5.1264   -5.3023 C   0  0  0  0  0  0  0  0  0  0  0  0
   -0.1108    5.1535   -6.5102 C   0  0  0  0  0  0  0  0  0  0  0  0
   -0.5567    5.9104   -7.6072 C   0  0  0  0  0  0  0  0  0  0  0  0
    0.1646    5.9131   -8.7613 C   0  0  0  0  0  0  0  0  0  0  0  0
    1.3413    5.1745   -8.8737 C   0  0  0  0  0  0  0  0  0  0  0  0
    1.8032    4.4297   -7.8325 C   0  0  0  0  0  0  0  0  0  0  0  0
    1.0856    4.4026   -6.6245 C   0  0  0  0  0  0  0  0  0  0  0  0
    1.5310    3.6451   -5.5277 C   0  0  0  0  0  0  0  0  0  0  0  0
   -1.1111   -1.1764    0.0063 N   0  0  0  0  0  0  0  0  0  0  0  0
   -2.5331    0.9031    0.0206 H   0  0  0  0  0  0  0  0  0  0  0  0
   -3.0429    3.3092    0.0491 H   0  0  0  0  0  0  0  0  0  0  0  0
   -1.2171    4.9583    0.0396 H   0  0  0  0  0  0  0  0  0  0  0  0
    1.6565    1.8092   -0.0033 H   0  0  0  0  0  0  0  0  0  0  0  0
    1.1147    5.3990    0.5333 H   0  0  0  0  0  0  0  0  0  0  0  0
    2.3151    4.0848    0.5156 H   0  0  0  0  0  0  0  0  0  0  0  0
    4.4649    7.7957   -0.4003 H   0  0  0  0  0  0  0  0  0  0  0  0
    3.8301    8.3771   -1.9582 H   0  0  0  0  0  0  0  0  0  0  0  0
    2.2770   10.2381   -2.0504 H   0  0  0  0  0  0  0  0  0  0  0  0
    1.4530   12.2819   -0.9519 H   0  0  0  0  0  0  0  0  0  0  0  0
    1.8047   12.6090    1.4632 H   0  0  0  0  0  0  0  0  0  0  0  0
    2.9734   10.8885    2.7812 H   0  0  0  0  0  0  0  0  0  0  0  0
    3.7892    8.8405    1.6845 H   0  0  0  0  0  0  0  0  0  0  0  0
    3.2998    3.4581   -2.0105 H   0  0  0  0  0  0  0  0  0  0  0  0
   -0.9260    4.3539   -3.3376 H   0  0  0  0  0  0  0  0  0  0  0  0
   -1.7423    5.6933   -5.2010 H   0  0  0  0  0  0  0  0  0  0  0  0
   -1.4667    6.4875   -7.5346 H   0  0  0  0  0  0  0  0  0  0  0  0
   -0.1800    6.4958   -9.6027 H   0  0  0  0  0  0  0  0  0  0  0  0
    1.8945    5.1933   -9.8009 H   0  0  0  0  0  0  0  0  0  0  0  0
    2.7165    3.8622   -7.9342 H   0  0  0  0  0  0  0  0  0  0  0  0
    2.4408    3.0678   -5.6004 H   0  0  0  0  0  0  0  0  0  0  0  0
   -2.0347   -0.8800    0.0168 H   0  0  0  0  0  0  0  0  0  0  0  0
   -0.9061   -2.1245   -0.0007 H   0  0  0  0  0  0  0  0  0  0  0  0
    1.1892   -0.5903   -0.0124 N   0  3  0  0  0  0  0  0  0  0  0  0
    1.9133    0.1376   -0.0153 H   0  0  0  0  0  0  0  0  0  0  0  0
  1 60  1  0  0  0  0
  2  3  1  0  0  0  0
  2 36  1  0  0  0  0
  2 60  2  0  0  0  0
  3  8  2  0  0  0  0
  3  4  1  0  0  0  0
  4  5  2  0  0  0  0
  4 37  1  0  0  0  0
  5  6  1  0  0  0  0
  5 38  1  0  0  0  0
  6  7  2  0  0  0  0
  6 39  1  0  0  0  0
  7  8  1  0  0  0  0
  7  9  1  0  0  0  0
  8 40  1  0  0  0  0
  9 10  1  0  0  0  0
  9 41  1  0  0  0  0
  9 42  1  0  0  0  0
 10 11  1  0  0  0  0
 10 12  1  0  0  0  0
 10 22  1  0  0  0  0
 12 13  2  0  0  0  0
 12 14  1  0  0  0  0
 14 15  1  0  0  0  0
 15 16  1  0  0  0  0
 15 43  1  0  0  0  0
 15 44  1  0  0  0  0
 16 21  2  0  0  0  0
 16 17  1  0  0  0  0
 17 18  2  0  0  0  0
 17 45  1  0  0  0  0
 18 19  1  0  0  0  0
 18 46  1  0  0  0  0
 19 20  2  0  0  0  0
 19 47  1  0  0  0  0
 20 21  1  0  0  0  0
 20 48  1  0  0  0  0
 21 49  1  0  0  0  0
 22 23  1  0  0  0  0
 22 50  1  0  0  0  0
 23 24  2  0  0  0  0
 23 25  2  0  0  0  0
 23 26  1  0  0  0  0
 26 35  2  0  0  0  0
 26 27  1  0  0  0  0
 27 28  2  0  0  0  0
 27 51  1  0  0  0  0
 28 29  1  0  0  0  0
 28 52  1  0  0  0  0
 29 34  2  0  0  0  0
 29 30  1  0  0  0  0
 30 31  2  0  0  0  0
 30 53  1  0  0  0  0
 31 32  1  0  0  0  0
 31 54  1  0  0  0  0
 32 33  2  0  0  0  0
 32 55  1  0  0  0  0
 33 34  1  0  0  0  0
 33 56  1  0  0  0  0
 34 35  1  0  0  0  0
 35 57  1  0  0  0  0
 36 58  1  0  0  0  0
 36 59  1  0  0  0  0
 60 61  1  0  0  0  0
M  CHG  1  60   1
M  END
$$$$
ZINC03834132
  -OEChem-08230709403D

 60 63  0     1  0  0  0  0  0999 V2000
    4.2628    4.1052    5.2510 H   0  0  0  0  0  0  0  0  0  0  0  0
    2.7679    2.7634    5.5816 C   0  0  0  0  0  0  0  0  0  0  0  0
    1.9212    1.7518    4.9087 C   0  0  0  0  0  0  0  0  0  0  0  0
    0.9644    1.0439    5.6359 C   0  0  0  0  0  0  0  0  0  0  0  0
    0.1785    0.1027    5.0034 C   0  0  0  0  0  0  0  0  0  0  0  0
    0.3385   -0.1400    3.6507 C   0  0  0  0  0  0  0  0  0  0  0  0
    1.2853    0.5592    2.9242 C   0  0  0  0  0  0  0  0  0  0  0  0
    2.0808    1.4994    3.5467 C   0  0  0  0  0  0  0  0  0  0  0  0
    1.4528    0.2891    1.4510 C   0  0  0  0  0  0  0  0  0  0  0  0
    0.5303    1.2143    0.6548 C   0  0  1  0  0  0  0  0  0  0  0  0
    0.7318    2.2504    0.9272 H   0  0  0  0  0  0  0  0  0  0  0  0
    0.7795    1.0249   -0.8193 C   0  0  0  0  0  0  0  0  0  0  0  0
    0.1116    0.2335   -1.4504 O   0  0  0  0  0  0  0  0  0  0  0  0
    1.7446    1.7351   -1.4364 N   0  0  0  0  0  0  0  0  0  0  0  0
    2.6339    2.6262   -0.6744 C   0  0  0  0  0  0  0  0  0  0  0  0
    4.0854    2.2973   -1.0586 C   0  0  0  0  0  0  0  0  0  0  0  0
    4.2144    2.3379   -2.4818 O   0  0  0  0  0  0  0  0  0  0  0  0
    3.4181    1.3700   -3.1696 C   0  0  0  0  0  0  0  0  0  0  0  0
    1.9361    1.6471   -2.8927 C   0  0  0  0  0  0  0  0  0  0  0  0
   -0.8660    0.8920    0.9594 N   0  0  0  0  0  0  0  0  0  0  0  0
   -2.0018    2.0961    1.0087 S   0  0  0  0  0  0  0  0  0  0  0  0
   -3.2456    1.4697    1.2916 O   0  0  0  0  0  0  0  0  0  0  0  0
   -1.4652    3.1274    1.8256 O   0  0  0  0  0  0  0  0  0  0  0  0
   -2.1301    2.7582   -0.6191 C   0  0  0  0  0  0  0  0  0  0  0  0
   -1.3171    3.8273   -0.9913 C   0  0  0  0  0  0  0  0  0  0  0  0
   -1.3872    4.3586   -2.2422 C   0  0  0  0  0  0  0  0  0  0  0  0
   -2.3003    3.8313   -3.1714 C   0  0  0  0  0  0  0  0  0  0  0  0
   -2.4060    4.3580   -4.4701 C   0  0  0  0  0  0  0  0  0  0  0  0
   -3.3014    3.8216   -5.3433 C   0  0  0  0  0  0  0  0  0  0  0  0
   -4.1183    2.7560   -4.9695 C   0  0  0  0  0  0  0  0  0  0  0  0
   -4.0440    2.2206   -3.7205 C   0  0  0  0  0  0  0  0  0  0  0  0
   -3.1309    2.7478   -2.7913 C   0  0  0  0  0  0  0  0  0  0  0  0
   -3.0256    2.2218   -1.4922 C   0  0  0  0  0  0  0  0  0  0  0  0
    2.6113    3.0070    6.9286 N   0  0  0  0  0  0  0  0  0  0  0  0
    0.8391    1.2321    6.6920 H   0  0  0  0  0  0  0  0  0  0  0  0
   -0.5627   -0.4461    5.5654 H   0  0  0  0  0  0  0  0  0  0  0  0
   -0.2787   -0.8780    3.1601 H   0  0  0  0  0  0  0  0  0  0  0  0
    2.8229    2.0415    2.9792 H   0  0  0  0  0  0  0  0  0  0  0  0
    1.1959   -0.7490    1.2404 H   0  0  0  0  0  0  0  0  0  0  0  0
    2.4879    0.4727    1.1633 H   0  0  0  0  0  0  0  0  0  0  0  0
    2.4121    3.6645   -0.9211 H   0  0  0  0  0  0  0  0  0  0  0  0
    2.4896    2.4631    0.3936 H   0  0  0  0  0  0  0  0  0  0  0  0
    4.3436    1.3017   -0.6979 H   0  0  0  0  0  0  0  0  0  0  0  0
    4.7552    3.0318   -0.6112 H   0  0  0  0  0  0  0  0  0  0  0  0
    3.6739    0.3710   -2.8165 H   0  0  0  0  0  0  0  0  0  0  0  0
    3.6073    1.4378   -4.2408 H   0  0  0  0  0  0  0  0  0  0  0  0
    1.3296    0.8353   -3.2943 H   0  0  0  0  0  0  0  0  0  0  0  0
    1.6447    2.5883   -3.3588 H   0  0  0  0  0  0  0  0  0  0  0  0
   -1.1258   -0.0271    1.1283 H   0  0  0  0  0  0  0  0  0  0  0  0
   -0.6179    4.2375   -0.2776 H   0  0  0  0  0  0  0  0  0  0  0  0
   -0.7483    5.1845   -2.5178 H   0  0  0  0  0  0  0  0  0  0  0  0
   -1.7794    5.1836   -4.7738 H   0  0  0  0  0  0  0  0  0  0  0  0
   -3.3805    4.2279   -6.3408 H   0  0  0  0  0  0  0  0  0  0  0  0
   -4.8211    2.3492   -5.6815 H   0  0  0  0  0  0  0  0  0  0  0  0
   -4.6835    1.3953   -3.4447 H   0  0  0  0  0  0  0  0  0  0  0  0
   -3.6522    1.3963   -1.1884 H   0  0  0  0  0  0  0  0  0  0  0  0
    1.9465    2.5158    7.4362 H   0  0  0  0  0  0  0  0  0  0  0  0
    3.1658    3.6696    7.3693 H   0  0  0  0  0  0  0  0  0  0  0  0
    3.6562    3.3993    4.8335 N   0  3  0  0  0  0  0  0  0  0  0  0
    3.7344    3.1820    3.8330 H   0  0  0  0  0  0  0  0  0  0  0  0
  1 59  1  0  0  0  0
  2  3  1  0  0  0  0
  2 34  1  0  0  0  0
  2 59  2  0  0  0  0
  3  8  2  0  0  0  0
  3  4  1  0  0  0  0
  4  5  2  0  0  0  0
  4 35  1  0  0  0  0
  5  6  1  0  0  0  0
  5 36  1  0  0  0  0
  6  7  2  0  0  0  0
  6 37  1  0  0  0  0
  7  8  1  0  0  0  0
  7  9  1  0  0  0  0
  8 38  1  0  0  0  0
  9 10  1  0  0  0  0
  9 39  1  0  0  0  0
  9 40  1  0  0  0  0
 10 11  1  0  0  0  0
 10 12  1  0  0  0  0
 10 20  1  0  0  0  0
 12 13  2  0  0  0  0
 12 14  1  0  0  0  0
 14 19  1  0  0  0  0
 14 15  1  0  0  0  0
 15 16  1  0  0  0  0
 15 41  1  0  0  0  0
 15 42  1  0  0  0  0
 16 17  1  0  0  0  0
 16 43  1  0  0  0  0
 16 44  1  0  0  0  0
 17 18  1  0  0  0  0
 18 19  1  0  0  0  0
 18 45  1  0  0  0  0
 18 46  1  0  0  0  0
 19 47  1  0  0  0  0
 19 48  1  0  0  0  0
 20 21  1  0  0  0  0
 20 49  1  0  0  0  0
 21 22  2  0  0  0  0
 21 23  2  0  0  0  0
 21 24  1  0  0  0  0
 24 33  2  0  0  0  0
 24 25  1  0  0  0  0
 25 26  2  0  0  0  0
 25 50  1  0  0  0  0
 26 27  1  0  0  0  0
 26 51  1  0  0  0  0
 27 32  2  0  0  0  0
 27 28  1  0  0  0  0
 28 29  2  0  0  0  0
 28 52  1  0  0  0  0
 29 30  1  0  0  0  0
 29 53  1  0  0  0  0
 30 31  2  0  0  0  0
 30 54  1  0  0  0  0
 31 32  1  0  0  0  0
 31 55  1  0  0  0  0
 32 33  1  0  0  0  0
 33 56  1  0  0  0  0
 34 57  1  0  0  0  0
 34 58  1  0  0  0  0
 59 60  1  0  0  0  0
M  CHG  1  59   1
M  END
$$$$
ZINC03834135
  -OEChem-08230709403D

 62 65  0     1  0  0  0  0  0999 V2000
    6.5095    6.1514    2.1422 H   0  0  0  0  0  0  0  0  0  0  0  0
    7.7996    4.8659    1.2323 C   0  0  0  0  0  0  0  0  0  0  0  0
    7.8822    3.5308    0.5972 C   0  0  0  0  0  0  0  0  0  0  0  0
    9.0965    3.0721    0.0867 C   0  0  0  0  0  0  0  0  0  0  0  0
    9.1672    1.8273   -0.5039 C   0  0  0  0  0  0  0  0  0  0  0  0
    8.0365    1.0346   -0.5911 C   0  0  0  0  0  0  0  0  0  0  0  0
    6.8296    1.4837   -0.0864 C   0  0  0  0  0  0  0  0  0  0  0  0
    6.7451    2.7293    0.5021 C   0  0  0  0  0  0  0  0  0  0  0  0
    5.6029    0.6140   -0.1849 C   0  0  0  0  0  0  0  0  0  0  0  0
    5.5030   -0.2698    1.0602 C   0  0  1  0  0  0  0  0  0  0  0  0
    5.5268    0.3558    1.9525 H   0  0  0  0  0  0  0  0  0  0  0  0
    4.2109   -1.0444    1.0240 C   0  0  0  0  0  0  0  0  0  0  0  0
    4.2289   -2.2468    0.8661 O   0  0  0  0  0  0  0  0  0  0  0  0
    3.0352   -0.4011    1.1672 N   0  0  0  0  0  0  0  0  0  0  0  0
    2.9998    1.0446    1.4265 C   0  0  0  0  0  0  0  0  0  0  0  0
    2.1549    1.3004    2.6785 C   0  0  0  0  0  0  0  0  0  0  0  0
    0.7766    0.6601    2.4985 C   0  0  0  0  0  0  0  0  0  0  0  0
    0.9338   -0.8519    2.3225 C   0  0  0  0  0  0  0  0  0  0  0  0
    1.7648   -1.1322    1.0664 C   0  0  0  0  0  0  0  0  0  0  0  0
    6.6316   -1.2034    1.0881 N   0  0  0  0  0  0  0  0  0  0  0  0
    7.3110   -1.6381    2.5344 S   0  0  0  0  0  0  0  0  0  0  0  0
    8.3490   -2.5611    2.2344 O   0  0  0  0  0  0  0  0  0  0  0  0
    7.5462   -0.4337    3.2509 O   0  0  0  0  0  0  0  0  0  0  0  0
    6.0888   -2.5304    3.4370 C   0  0  0  0  0  0  0  0  0  0  0  0
    5.2255   -1.8427    4.2880 C   0  0  0  0  0  0  0  0  0  0  0  0
    4.2669   -2.5010    4.9951 C   0  0  0  0  0  0  0  0  0  0  0  0
    4.1508   -3.8965    4.8768 C   0  0  0  0  0  0  0  0  0  0  0  0
    3.1779   -4.6115    5.5962 C   0  0  0  0  0  0  0  0  0  0  0  0
    3.0948   -5.9626    5.4562 C   0  0  0  0  0  0  0  0  0  0  0  0
    3.9615   -6.6511    4.6094 C   0  0  0  0  0  0  0  0  0  0  0  0
    4.9161   -5.9921    3.8975 C   0  0  0  0  0  0  0  0  0  0  0  0
    5.0322   -4.5965    4.0156 C   0  0  0  0  0  0  0  0  0  0  0  0
    6.0056   -3.8816    3.2969 C   0  0  0  0  0  0  0  0  0  0  0  0
    8.9237    5.6578    1.3201 N   0  0  0  0  0  0  0  0  0  0  0  0
    9.9796    3.6903    0.1535 H   0  0  0  0  0  0  0  0  0  0  0  0
   10.1068    1.4710   -0.8995 H   0  0  0  0  0  0  0  0  0  0  0  0
    8.0966    0.0610   -1.0546 H   0  0  0  0  0  0  0  0  0  0  0  0
    5.8012    3.0807    0.8919 H   0  0  0  0  0  0  0  0  0  0  0  0
    5.6738   -0.0152   -1.0721 H   0  0  0  0  0  0  0  0  0  0  0  0
    4.7158    1.2434   -0.2557 H   0  0  0  0  0  0  0  0  0  0  0  0
    2.5547    1.5579    0.5742 H   0  0  0  0  0  0  0  0  0  0  0  0
    4.0132    1.4119    1.5883 H   0  0  0  0  0  0  0  0  0  0  0  0
    2.0406    2.3742    2.8272 H   0  0  0  0  0  0  0  0  0  0  0  0
    2.6486    0.8631    3.5463 H   0  0  0  0  0  0  0  0  0  0  0  0
    0.1649    0.8617    3.3779 H   0  0  0  0  0  0  0  0  0  0  0  0
    0.2934    1.0802    1.6163 H   0  0  0  0  0  0  0  0  0  0  0  0
    1.4390   -1.2691    3.1936 H   0  0  0  0  0  0  0  0  0  0  0  0
   -0.0498   -1.3102    2.2178 H   0  0  0  0  0  0  0  0  0  0  0  0
    1.2189   -0.7964    0.1848 H   0  0  0  0  0  0  0  0  0  0  0  0
    1.9634   -2.2013    0.9906 H   0  0  0  0  0  0  0  0  0  0  0  0
    6.9809   -1.5671    0.2595 H   0  0  0  0  0  0  0  0  0  0  0  0
    5.3156   -0.7708    4.3843 H   0  0  0  0  0  0  0  0  0  0  0  0
    3.6025   -1.9544    5.6479 H   0  0  0  0  0  0  0  0  0  0  0  0
    2.4995   -4.0912    6.2560 H   0  0  0  0  0  0  0  0  0  0  0  0
    2.3460   -6.5096    6.0099 H   0  0  0  0  0  0  0  0  0  0  0  0
    3.8747   -7.7235    4.5170 H   0  0  0  0  0  0  0  0  0  0  0  0
    5.5811   -6.5388    3.2454 H   0  0  0  0  0  0  0  0  0  0  0  0
    6.6843   -4.4017    2.6372 H   0  0  0  0  0  0  0  0  0  0  0  0
    9.7692    5.3407    0.9658 H   0  0  0  0  0  0  0  0  0  0  0  0
    8.8696    6.5324    1.7362 H   0  0  0  0  0  0  0  0  0  0  0  0
    6.6172    5.2403    1.6960 N   0  3  0  0  0  0  0  0  0  0  0  0
    5.8088    4.6137    1.6066 H   0  0  0  0  0  0  0  0  0  0  0  0
  1 61  1  0  0  0  0
  2  3  1  0  0  0  0
  2 34  1  0  0  0  0
  2 61  2  0  0  0  0
  3  8  2  0  0  0  0
  3  4  1  0  0  0  0
  4  5  2  0  0  0  0
  4 35  1  0  0  0  0
  5  6  1  0  0  0  0
  5 36  1  0  0  0  0
  6  7  2  0  0  0  0
  6 37  1  0  0  0  0
  7  8  1  0  0  0  0
  7  9  1  0  0  0  0
  8 38  1  0  0  0  0
  9 10  1  0  0  0  0
  9 39  1  0  0  0  0
  9 40  1  0  0  0  0
 10 11  1  0  0  0  0
 10 12  1  0  0  0  0
 10 20  1  0  0  0  0
 12 13  2  0  0  0  0
 12 14  1  0  0  0  0
 14 19  1  0  0  0  0
 14 15  1  0  0  0  0
 15 16  1  0  0  0  0
 15 41  1  0  0  0  0
 15 42  1  0  0  0  0
 16 17  1  0  0  0  0
 16 43  1  0  0  0  0
 16 44  1  0  0  0  0
 17 18  1  0  0  0  0
 17 45  1  0  0  0  0
 17 46  1  0  0  0  0
 18 19  1  0  0  0  0
 18 47  1  0  0  0  0
 18 48  1  0  0  0  0
 19 49  1  0  0  0  0
 19 50  1  0  0  0  0
 20 21  1  0  0  0  0
 20 51  1  0  0  0  0
 21 22  2  0  0  0  0
 21 23  2  0  0  0  0
 21 24  1  0  0  0  0
 24 33  2  0  0  0  0
 24 25  1  0  0  0  0
 25 26  2  0  0  0  0
 25 52  1  0  0  0  0
 26 27  1  0  0  0  0
 26 53  1  0  0  0  0
 27 32  2  0  0  0  0
 27 28  1  0  0  0  0
 28 29  2  0  0  0  0
 28 54  1  0  0  0  0
 29 30  1  0  0  0  0
 29 55  1  0  0  0  0
 30 31  2  0  0  0  0
 30 56  1  0  0  0  0
 31 32  1  0  0  0  0
 31 57  1  0  0  0  0
 32 33  1  0  0  0  0
 33 58  1  0  0  0  0
 34 59  1  0  0  0  0
 34 60  1  0  0  0  0
 61 62  1  0  0  0  0
M  CHG  1  61   1
M  END
$$$$
ZINC03834136
  -OEChem-08230709403D

 72 74  0     1  0  0  0  0  0999 V2000
   -3.0588    2.4660   -6.1220 H   0  0  0  0  0  0  0  0  0  0  0  0
   -2.9723    0.4840   -6.5789 C   0  0  0  0  0  0  0  0  0  0  0  0
   -2.0664   -0.6874   -6.5800 C   0  0  0  0  0  0  0  0  0  0  0  0
   -2.5246   -1.9265   -7.0273 C   0  0  0  0  0  0  0  0  0  0  0  0
   -1.6756   -3.0141   -7.0264 C   0  0  0  0  0  0  0  0  0  0  0  0
   -0.3705   -2.8761   -6.5884 C   0  0  0  0  0  0  0  0  0  0  0  0
    0.0881   -1.6513   -6.1383 C   0  0  0  0  0  0  0  0  0  0  0  0
   -0.7516   -0.5560   -6.1344 C   0  0  0  0  0  0  0  0  0  0  0  0
    1.5092   -1.5109   -5.6572 C   0  0  0  0  0  0  0  0  0  0  0  0
    1.5688   -1.7913   -4.1542 C   0  0  1  0  0  0  0  0  0  0  0  0
    1.2532   -2.8170   -3.9632 H   0  0  0  0  0  0  0  0  0  0  0  0
    2.9808   -1.6005   -3.6631 C   0  0  0  0  0  0  0  0  0  0  0  0
    3.2640   -0.6296   -2.9939 O   0  0  0  0  0  0  0  0  0  0  0  0
    3.9287   -2.5088   -3.9677 N   0  0  0  0  0  0  0  0  0  0  0  0
    3.6303   -3.6278   -4.8720 C   0  0  0  0  0  0  0  0  0  0  0  0
    4.0053   -4.9384   -4.1826 C   0  0  0  0  0  0  0  0  0  0  0  0
    5.4640   -4.8719   -3.7244 C   0  0  0  0  0  0  0  0  0  0  0  0
    5.6333   -3.7299   -2.7198 C   0  0  0  0  0  0  0  0  0  0  0  0
    5.2784   -2.4025   -3.3970 C   0  0  0  0  0  0  0  0  0  0  0  0
    5.8509   -6.1955   -3.0615 C   0  0  0  0  0  0  0  0  0  0  0  0
    0.6775   -0.8668   -3.4493 N   0  0  0  0  0  0  0  0  0  0  0  0
   -0.8672   -1.3305   -3.0736 S   0  0  0  0  0  0  0  0  0  0  0  0
   -1.4282   -1.8737   -4.2608 O   0  0  0  0  0  0  0  0  0  0  0  0
   -1.4606   -0.2416   -2.3796 O   0  0  0  0  0  0  0  0  0  0  0  0
   -0.7471   -2.6572   -1.9205 C   0  0  0  0  0  0  0  0  0  0  0  0
   -0.5460   -2.3895   -0.5787 C   0  0  0  0  0  0  0  0  0  0  0  0
   -0.4575   -3.4276    0.3281 C   0  0  0  0  0  0  0  0  0  0  0  0
   -0.5650   -4.7401   -0.1090 C   0  0  0  0  0  0  0  0  0  0  0  0
   -0.7611   -5.0062   -1.4561 C   0  0  0  0  0  0  0  0  0  0  0  0
   -0.8488   -3.9642   -2.3592 C   0  0  0  0  0  0  0  0  0  0  0  0
   -1.0623   -4.2525   -3.8229 C   0  0  0  0  0  0  0  0  0  0  0  0
   -0.8787   -6.4305   -1.9342 C   0  0  0  0  0  0  0  0  0  0  0  0
   -0.4787   -5.7632    0.7814 O   0  0  0  0  0  0  0  0  0  0  0  0
   -0.2768   -5.4148    2.1525 C   0  0  0  0  0  0  0  0  0  0  0  0
   -0.4293   -0.9638   -0.1047 C   0  0  0  0  0  0  0  0  0  0  0  0
   -4.2709    0.3510   -7.0198 N   0  0  0  0  0  0  0  0  0  0  0  0
   -3.5417   -2.0343   -7.3739 H   0  0  0  0  0  0  0  0  0  0  0  0
   -2.0295   -3.9742   -7.3722 H   0  0  0  0  0  0  0  0  0  0  0  0
    0.2916   -3.7293   -6.5937 H   0  0  0  0  0  0  0  0  0  0  0  0
   -0.3912    0.4008   -5.7867 H   0  0  0  0  0  0  0  0  0  0  0  0
    1.8604   -0.4976   -5.8519 H   0  0  0  0  0  0  0  0  0  0  0  0
    2.1436   -2.2230   -6.1850 H   0  0  0  0  0  0  0  0  0  0  0  0
    2.5663   -3.6325   -5.1089 H   0  0  0  0  0  0  0  0  0  0  0  0
    4.2103   -3.5214   -5.7888 H   0  0  0  0  0  0  0  0  0  0  0  0
    3.8805   -5.7665   -4.8803 H   0  0  0  0  0  0  0  0  0  0  0  0
    3.3589   -5.0897   -3.3181 H   0  0  0  0  0  0  0  0  0  0  0  0
    6.1075   -4.6957   -4.5864 H   0  0  0  0  0  0  0  0  0  0  0  0
    6.6673   -3.6980   -2.3762 H   0  0  0  0  0  0  0  0  0  0  0  0
    4.9716   -3.8927   -1.8690 H   0  0  0  0  0  0  0  0  0  0  0  0
    5.9955   -2.1941   -4.1910 H   0  0  0  0  0  0  0  0  0  0  0  0
    5.3015   -1.5990   -2.6609 H   0  0  0  0  0  0  0  0  0  0  0  0
    5.2078   -6.3716   -2.1993 H   0  0  0  0  0  0  0  0  0  0  0  0
    5.7303   -7.0090   -3.7770 H   0  0  0  0  0  0  0  0  0  0  0  0
    6.8901   -6.1488   -2.7362 H   0  0  0  0  0  0  0  0  0  0  0  0
    0.9922    0.0170   -3.2026 H   0  0  0  0  0  0  0  0  0  0  0  0
   -0.3045   -3.2179    1.3765 H   0  0  0  0  0  0  0  0  0  0  0  0
   -2.1311   -4.2854   -4.0347 H   0  0  0  0  0  0  0  0  0  0  0  0
   -0.5978   -3.4674   -4.4194 H   0  0  0  0  0  0  0  0  0  0  0  0
   -0.6127   -5.2133   -4.0733 H   0  0  0  0  0  0  0  0  0  0  0  0
   -1.9244   -6.7371   -1.9086 H   0  0  0  0  0  0  0  0  0  0  0  0
   -0.5036   -6.5033   -2.9551 H   0  0  0  0  0  0  0  0  0  0  0  0
   -0.2932   -7.0813   -1.2847 H   0  0  0  0  0  0  0  0  0  0  0  0
   -1.1062   -4.7966    2.4962 H   0  0  0  0  0  0  0  0  0  0  0  0
   -0.2263   -6.3221    2.7543 H   0  0  0  0  0  0  0  0  0  0  0  0
    0.6559   -4.8598    2.2528 H   0  0  0  0  0  0  0  0  0  0  0  0
    0.5874   -0.6076   -0.2710 H   0  0  0  0  0  0  0  0  0  0  0  0
   -1.1288   -0.3382   -0.6592 H   0  0  0  0  0  0  0  0  0  0  0  0
   -0.6621   -0.9143    0.9589 H   0  0  0  0  0  0  0  0  0  0  0  0
   -4.5917   -0.5099   -7.3309 H   0  0  0  0  0  0  0  0  0  0  0  0
   -4.8643    1.1183   -7.0190 H   0  0  0  0  0  0  0  0  0  0  0  0
   -2.4740    1.6304   -6.1422 N   0  3  0  0  0  0  0  0  0  0  0  0
   -1.4990    1.6783   -5.8239 H   0  0  0  0  0  0  0  0  0  0  0  0
  1 71  1  0  0  0  0
  2  3  1  0  0  0  0
  2 36  1  0  0  0  0
  2 71  2  0  0  0  0
  3  8  2  0  0  0  0
  3  4  1  0  0  0  0
  4  5  2  0  0  0  0
  4 37  1  0  0  0  0
  5  6  1  0  0  0  0
  5 38  1  0  0  0  0
  6  7  2  0  0  0  0
  6 39  1  0  0  0  0
  7  8  1  0  0  0  0
  7  9  1  0  0  0  0
  8 40  1  0  0  0  0
  9 10  1  0  0  0  0
  9 41  1  0  0  0  0
  9 42  1  0  0  0  0
 10 11  1  0  0  0  0
 10 12  1  0  0  0  0
 10 21  1  0  0  0  0
 12 13  2  0  0  0  0
 12 14  1  0  0  0  0
 14 19  1  0  0  0  0
 14 15  1  0  0  0  0
 15 16  1  0  0  0  0
 15 43  1  0  0  0  0
 15 44  1  0  0  0  0
 16 17  1  0  0  0  0
 16 45  1  0  0  0  0
 16 46  1  0  0  0  0
 17 18  1  0  0  0  0
 17 20  1  0  0  0  0
 17 47  1  0  0  0  0
 18 19  1  0  0  0  0
 18 48  1  0  0  0  0
 18 49  1  0  0  0  0
 19 50  1  0  0  0  0
 19 51  1  0  0  0  0
 20 52  1  0  0  0  0
 20 53  1  0  0  0  0
 20 54  1  0  0  0  0
 21 22  1  0  0  0  0
 21 55  1  0  0  0  0
 22 23  2  0  0  0  0
 22 24  2  0  0  0  0
 22 25  1  0  0  0  0
 25 30  2  0  0  0  0
 25 26  1  0  0  0  0
 26 27  2  0  0  0  0
 26 35  1  0  0  0  0
 27 28  1  0  0  0  0
 27 56  1  0  0  0  0
 28 29  2  0  0  0  0
 28 33  1  0  0  0  0
 29 30  1  0  0  0  0
 29 32  1  0  0  0  0
 30 31  1  0  0  0  0
 31 57  1  0  0  0  0
 31 58  1  0  0  0  0
 31 59  1  0  0  0  0
 32 60  1  0  0  0  0
 32 61  1  0  0  0  0
 32 62  1  0  0  0  0
 33 34  1  0  0  0  0
 34 63  1  0  0  0  0
 34 64  1  0  0  0  0
 34 65  1  0  0  0  0
 35 66  1  0  0  0  0
 35 67  1  0  0  0  0
 35 68  1  0  0  0  0
 36 69  1  0  0  0  0
 36 70  1  0  0  0  0
 71 72  1  0  0  0  0
M  CHG  1  71   1
M  END
$$$$
ZINC03834141
  -OEChem-08230709403D

 71 73  0     1  0  0  0  0  0999 V2000
    3.9994   -7.9140    6.0003 H   0  0  0  0  0  0  0  0  0  0  0  0
    5.0276   -6.4330    5.0549 C   0  0  0  0  0  0  0  0  0  0  0  0
    4.8579   -5.2663    4.1589 C   0  0  0  0  0  0  0  0  0  0  0  0
    5.9669   -4.5152    3.7695 C   0  0  0  0  0  0  0  0  0  0  0  0
    5.8025   -3.4296    2.9342 C   0  0  0  0  0  0  0  0  0  0  0  0
    4.5414   -3.0886    2.4783 C   0  0  0  0  0  0  0  0  0  0  0  0
    3.4371   -3.8260    2.8655 C   0  0  0  0  0  0  0  0  0  0  0  0
    3.5889   -4.9142    3.7006 C   0  0  0  0  0  0  0  0  0  0  0  0
    2.0663   -3.4443    2.3694 C   0  0  0  0  0  0  0  0  0  0  0  0
    1.4255   -2.4590    3.3489 C   0  0  1  0  0  0  0  0  0  0  0  0
    2.0951   -1.6129    3.5034 H   0  0  0  0  0  0  0  0  0  0  0  0
    0.1176   -1.9680    2.7840 C   0  0  0  0  0  0  0  0  0  0  0  0
   -0.9302   -2.3947    3.2212 O   0  0  0  0  0  0  0  0  0  0  0  0
    0.1121   -1.0545    1.7930 N   0  0  0  0  0  0  0  0  0  0  0  0
   -1.1495   -0.6396    1.1644 C   0  0  0  0  0  0  0  0  0  0  0  0
   -1.2514    0.8877    1.2245 C   0  0  0  0  0  0  0  0  0  0  0  0
   -0.0014    1.5037    0.5918 C   0  0  0  0  0  0  0  0  0  0  0  0
    1.2373    1.0708    1.3795 C   0  0  0  0  0  0  0  0  0  0  0  0
    1.3674   -0.4545    1.3211 C   0  0  0  0  0  0  0  0  0  0  0  0
   -0.1136    3.0063    0.6186 C   0  0  0  0  0  0  0  0  0  0  0  0
   -1.0925    3.5306    1.0947 O   0  0  0  0  0  0  0  0  0  0  0  0
    0.8739    3.7622    0.1135 O   0  0  0  0  0  0  0  0  0  0  0  0
    0.6982    5.2022    0.1730 C   0  0  0  0  0  0  0  0  0  0  0  0
    1.1836   -3.1302    4.6285 N   0  0  0  0  0  0  0  0  0  0  0  0
    1.8735   -2.5433    6.0147 S   0  0  0  0  0  0  0  0  0  0  0  0
    1.4413   -3.3880    7.0726 O   0  0  0  0  0  0  0  0  0  0  0  0
    3.2479   -2.3280    5.7248 O   0  0  0  0  0  0  0  0  0  0  0  0
    1.1680   -0.9572    6.3167 C   0  0  0  0  0  0  0  0  0  0  0  0
    1.9406    0.1808    6.1776 C   0  0  0  0  0  0  0  0  0  0  0  0
    1.3860    1.4253    6.4101 C   0  0  0  0  0  0  0  0  0  0  0  0
    0.0613    1.5316    6.7907 C   0  0  0  0  0  0  0  0  0  0  0  0
   -0.7098    0.3934    6.9349 C   0  0  0  0  0  0  0  0  0  0  0  0
   -0.1564   -0.8510    6.6981 C   0  0  0  0  0  0  0  0  0  0  0  0
   -0.9970   -2.0918    6.8553 C   0  0  0  0  0  0  0  0  0  0  0  0
   -0.5424    2.8882    7.0480 C   0  0  0  0  0  0  0  0  0  0  0  0
    3.3862    0.0646    5.7678 C   0  0  0  0  0  0  0  0  0  0  0  0
    6.2828   -6.7784    5.5060 N   0  0  0  0  0  0  0  0  0  0  0  0
    6.9523   -4.7833    4.1209 H   0  0  0  0  0  0  0  0  0  0  0  0
    6.6604   -2.8470    2.6323 H   0  0  0  0  0  0  0  0  0  0  0  0
    4.4182   -2.2406    1.8210 H   0  0  0  0  0  0  0  0  0  0  0  0
    2.7264   -5.4918    3.9991 H   0  0  0  0  0  0  0  0  0  0  0  0
    1.4456   -4.3370    2.2938 H   0  0  0  0  0  0  0  0  0  0  0  0
    2.1521   -2.9772    1.3882 H   0  0  0  0  0  0  0  0  0  0  0  0
   -1.9882   -1.0832    1.7008 H   0  0  0  0  0  0  0  0  0  0  0  0
   -1.1668   -0.9663    0.1246 H   0  0  0  0  0  0  0  0  0  0  0  0
   -2.1352    1.2153    0.6772 H   0  0  0  0  0  0  0  0  0  0  0  0
   -1.3277    1.2065    2.2641 H   0  0  0  0  0  0  0  0  0  0  0  0
    0.0878    1.1647   -0.4403 H   0  0  0  0  0  0  0  0  0  0  0  0
    1.1375    1.3880    2.4176 H   0  0  0  0  0  0  0  0  0  0  0  0
    2.1249    1.5287    0.9430 H   0  0  0  0  0  0  0  0  0  0  0  0
    2.1893   -0.7758    1.9609 H   0  0  0  0  0  0  0  0  0  0  0  0
    1.5578   -0.7659    0.2940 H   0  0  0  0  0  0  0  0  0  0  0  0
    1.5661    5.6927   -0.2676 H   0  0  0  0  0  0  0  0  0  0  0  0
   -0.1976    5.4821   -0.3813 H   0  0  0  0  0  0  0  0  0  0  0  0
    0.5940    5.5129    1.2126 H   0  0  0  0  0  0  0  0  0  0  0  0
    0.6192   -3.9184    4.6637 H   0  0  0  0  0  0  0  0  0  0  0  0
    1.9883    2.3147    6.2973 H   0  0  0  0  0  0  0  0  0  0  0  0
   -1.7448    0.4764    7.2322 H   0  0  0  0  0  0  0  0  0  0  0  0
   -0.9206   -2.4550    7.8801 H   0  0  0  0  0  0  0  0  0  0  0  0
   -2.0372   -1.8570    6.6296 H   0  0  0  0  0  0  0  0  0  0  0  0
   -0.6412   -2.8609    6.1698 H   0  0  0  0  0  0  0  0  0  0  0  0
   -0.4097    3.1519    8.0972 H   0  0  0  0  0  0  0  0  0  0  0  0
   -0.0479    3.6306    6.4214 H   0  0  0  0  0  0  0  0  0  0  0  0
   -1.6060    2.8634    6.8112 H   0  0  0  0  0  0  0  0  0  0  0  0
    3.4466   -0.1020    4.6923 H   0  0  0  0  0  0  0  0  0  0  0  0
    3.9113    0.9851    6.0229 H   0  0  0  0  0  0  0  0  0  0  0  0
    3.8461   -0.7732    6.2917 H   0  0  0  0  0  0  0  0  0  0  0  0
    7.0554   -6.2573    5.2367 H   0  0  0  0  0  0  0  0  0  0  0  0
    6.3940   -7.5426    6.0929 H   0  0  0  0  0  0  0  0  0  0  0  0
    3.9342   -7.1027    5.3854 N   0  3  0  0  0  0  0  0  0  0  0  0
    3.0208   -6.8053    5.0229 H   0  0  0  0  0  0  0  0  0  0  0  0
  1 70  1  0  0  0  0
  2  3  1  0  0  0  0
  2 37  1  0  0  0  0
  2 70  2  0  0  0  0
  3  8  2  0  0  0  0
  3  4  1  0  0  0  0
  4  5  2  0  0  0  0
  4 38  1  0  0  0  0
  5  6  1  0  0  0  0
  5 39  1  0  0  0  0
  6  7  2  0  0  0  0
  6 40  1  0  0  0  0
  7  8  1  0  0  0  0
  7  9  1  0  0  0  0
  8 41  1  0  0  0  0
  9 10  1  0  0  0  0
  9 42  1  0  0  0  0
  9 43  1  0  0  0  0
 10 11  1  0  0  0  0
 10 12  1  0  0  0  0
 10 24  1  0  0  0  0
 12 13  2  0  0  0  0
 12 14  1  0  0  0  0
 14 19  1  0  0  0  0
 14 15  1  0  0  0  0
 15 16  1  0  0  0  0
 15 44  1  0  0  0  0
 15 45  1  0  0  0  0
 16 17  1  0  0  0  0
 16 46  1  0  0  0  0
 16 47  1  0  0  0  0
 17 18  1  0  0  0  0
 17 20  1  0  0  0  0
 17 48  1  0  0  0  0
 18 19  1  0  0  0  0
 18 49  1  0  0  0  0
 18 50  1  0  0  0  0
 19 51  1  0  0  0  0
 19 52  1  0  0  0  0
 20 21  2  0  0  0  0
 20 22  1  0  0  0  0
 22 23  1  0  0  0  0
 23 53  1  0  0  0  0
 23 54  1  0  0  0  0
 23 55  1  0  0  0  0
 24 25  1  0  0  0  0
 24 56  1  0  0  0  0
 25 26  2  0  0  0  0
 25 27  2  0  0  0  0
 25 28  1  0  0  0  0
 28 33  2  0  0  0  0
 28 29  1  0  0  0  0
 29 30  2  0  0  0  0
 29 36  1  0  0  0  0
 30 31  1  0  0  0  0
 30 57  1  0  0  0  0
 31 32  2  0  0  0  0
 31 35  1  0  0  0  0
 32 33  1  0  0  0  0
 32 58  1  0  0  0  0
 33 34  1  0  0  0  0
 34 59  1  0  0  0  0
 34 60  1  0  0  0  0
 34 61  1  0  0  0  0
 35 62  1  0  0  0  0
 35 63  1  0  0  0  0
 35 64  1  0  0  0  0
 36 65  1  0  0  0  0
 36 66  1  0  0  0  0
 36 67  1  0  0  0  0
 37 68  1  0  0  0  0
 37 69  1  0  0  0  0
 70 71  1  0  0  0  0
M  CHG  1  70   1
M  END
$$$$
ZINC03834143
  -OEChem-08230709403D

 62 65  0     1  0  0  0  0  0999 V2000
   -3.1921   -4.1871   -0.8468 H   0  0  0  0  0  0  0  0  0  0  0  0
   -1.3805   -4.8510   -0.1972 C   0  0  0  0  0  0  0  0  0  0  0  0
    0.0752   -4.6032   -0.3083 C   0  0  0  0  0  0  0  0  0  0  0  0
    0.9770   -5.4023    0.3943 C   0  0  0  0  0  0  0  0  0  0  0  0
    2.3322   -5.1669    0.2864 C   0  0  0  0  0  0  0  0  0  0  0  0
    2.7975   -4.1441   -0.5209 C   0  0  0  0  0  0  0  0  0  0  0  0
    1.9078   -3.3447   -1.2155 C   0  0  0  0  0  0  0  0  0  0  0  0
    0.5499   -3.5703   -1.1158 C   0  0  0  0  0  0  0  0  0  0  0  0
    2.4226   -2.2288   -2.0879 C   0  0  0  0  0  0  0  0  0  0  0  0
    2.5282   -0.9443   -1.2635 C   0  0  1  0  0  0  0  0  0  0  0  0
    3.1579   -1.1227   -0.3919 H   0  0  0  0  0  0  0  0  0  0  0  0
    3.1363    0.1459   -2.1078 C   0  0  0  0  0  0  0  0  0  0  0  0
    2.4293    1.0058   -2.5892 O   0  0  0  0  0  0  0  0  0  0  0  0
    4.4658    0.1652   -2.3281 N   0  0  0  0  0  0  0  0  0  0  0  0
    5.0887    1.2829   -3.0503 C   0  0  0  0  0  0  0  0  0  0  0  0
    6.2289    1.8465   -2.1888 C   0  0  0  0  0  0  0  0  0  0  0  0
    7.1948    0.7155   -1.8280 C   0  0  0  0  0  0  0  0  0  0  0  0
    6.4559   -0.3480   -1.0125 C   0  0  0  0  0  0  0  0  0  0  0  0
    5.3189   -0.9337   -1.8558 C   0  0  0  0  0  0  0  0  0  0  0  0
    1.1919   -0.5342   -0.8248 N   0  0  0  0  0  0  0  0  0  0  0  0
    0.9859    0.1590    0.6649 S   0  0  0  0  0  0  0  0  0  0  0  0
    1.6876   -0.6568    1.5930 O   0  0  0  0  0  0  0  0  0  0  0  0
   -0.4010    0.4398    0.7939 O   0  0  0  0  0  0  0  0  0  0  0  0
    1.8138    1.7141    0.6348 C   0  0  0  0  0  0  0  0  0  0  0  0
    2.8746    1.9405    1.4575 C   0  0  0  0  0  0  0  0  0  0  0  0
    3.5460    3.1613    1.4428 C   0  0  0  0  0  0  0  0  0  0  0  0
    3.1527    4.1676    0.6148 C   0  0  0  0  0  0  0  0  0  0  0  0
    2.0579    3.9732   -0.2441 C   0  0  0  0  0  0  0  0  0  0  0  0
    1.3791    2.7290   -0.2341 C   0  0  0  0  0  0  0  0  0  0  0  0
    0.2836    2.5350   -1.0929 C   0  0  0  0  0  0  0  0  0  0  0  0
   -0.1098    3.5412   -1.9204 C   0  0  0  0  0  0  0  0  0  0  0  0
    0.5575    4.7649   -1.9299 C   0  0  0  0  0  0  0  0  0  0  0  0
    1.6221    4.9889   -1.1124 C   0  0  0  0  0  0  0  0  0  0  0  0
   -1.8466   -5.8723    0.6016 N   0  0  0  0  0  0  0  0  0  0  0  0
    0.6153   -6.2040    1.0211 H   0  0  0  0  0  0  0  0  0  0  0  0
    3.0315   -5.7848    0.8303 H   0  0  0  0  0  0  0  0  0  0  0  0
    3.8594   -3.9664   -0.6056 H   0  0  0  0  0  0  0  0  0  0  0  0
   -0.1436   -2.9481   -1.6619 H   0  0  0  0  0  0  0  0  0  0  0  0
    1.7357   -2.0714   -2.9195 H   0  0  0  0  0  0  0  0  0  0  0  0
    3.4064   -2.4944   -2.4746 H   0  0  0  0  0  0  0  0  0  0  0  0
    5.4866    0.9273   -4.0008 H   0  0  0  0  0  0  0  0  0  0  0  0
    4.3464    2.0604   -3.2307 H   0  0  0  0  0  0  0  0  0  0  0  0
    5.8189    2.2797   -1.2764 H   0  0  0  0  0  0  0  0  0  0  0  0
    6.7614    2.6147   -2.7495 H   0  0  0  0  0  0  0  0  0  0  0  0
    8.0196    1.1165   -1.2390 H   0  0  0  0  0  0  0  0  0  0  0  0
    7.5853    0.2665   -2.7412 H   0  0  0  0  0  0  0  0  0  0  0  0
    6.0436    0.1058   -0.1113 H   0  0  0  0  0  0  0  0  0  0  0  0
    7.1498   -1.1418   -0.7359 H   0  0  0  0  0  0  0  0  0  0  0  0
    4.7286   -1.6192   -1.2478 H   0  0  0  0  0  0  0  0  0  0  0  0
    5.7353   -1.4665   -2.7108 H   0  0  0  0  0  0  0  0  0  0  0  0
    0.4278   -0.6688   -1.4070 H   0  0  0  0  0  0  0  0  0  0  0  0
    3.2040    1.1603    2.1277 H   0  0  0  0  0  0  0  0  0  0  0  0
    4.3878    3.3133    2.1021 H   0  0  0  0  0  0  0  0  0  0  0  0
    3.6796    5.1103    0.6178 H   0  0  0  0  0  0  0  0  0  0  0  0
   -0.2435    1.5924   -1.0960 H   0  0  0  0  0  0  0  0  0  0  0  0
   -0.9519    3.3895   -2.5794 H   0  0  0  0  0  0  0  0  0  0  0  0
    0.2249    5.5469   -2.5965 H   0  0  0  0  0  0  0  0  0  0  0  0
    2.1292    5.9423   -1.1304 H   0  0  0  0  0  0  0  0  0  0  0  0
   -1.2212   -6.4290    1.0912 H   0  0  0  0  0  0  0  0  0  0  0  0
   -2.8001   -6.0346    0.6743 H   0  0  0  0  0  0  0  0  0  0  0  0
   -2.1813   -4.0564   -0.8904 N   0  3  0  0  0  0  0  0  0  0  0  0
   -1.7850   -3.3087   -1.4718 H   0  0  0  0  0  0  0  0  0  0  0  0
  1 61  1  0  0  0  0
  2  3  1  0  0  0  0
  2 34  1  0  0  0  0
  2 61  2  0  0  0  0
  3  8  2  0  0  0  0
  3  4  1  0  0  0  0
  4  5  2  0  0  0  0
  4 35  1  0  0  0  0
  5  6  1  0  0  0  0
  5 36  1  0  0  0  0
  6  7  2  0  0  0  0
  6 37  1  0  0  0  0
  7  8  1  0  0  0  0
  7  9  1  0  0  0  0
  8 38  1  0  0  0  0
  9 10  1  0  0  0  0
  9 39  1  0  0  0  0
  9 40  1  0  0  0  0
 10 11  1  0  0  0  0
 10 12  1  0  0  0  0
 10 20  1  0  0  0  0
 12 13  2  0  0  0  0
 12 14  1  0  0  0  0
 14 19  1  0  0  0  0
 14 15  1  0  0  0  0
 15 16  1  0  0  0  0
 15 41  1  0  0  0  0
 15 42  1  0  0  0  0
 16 17  1  0  0  0  0
 16 43  1  0  0  0  0
 16 44  1  0  0  0  0
 17 18  1  0  0  0  0
 17 45  1  0  0  0  0
 17 46  1  0  0  0  0
 18 19  1  0  0  0  0
 18 47  1  0  0  0  0
 18 48  1  0  0  0  0
 19 49  1  0  0  0  0
 19 50  1  0  0  0  0
 20 21  1  0  0  0  0
 20 51  1  0  0  0  0
 21 22  2  0  0  0  0
 21 23  2  0  0  0  0
 21 24  1  0  0  0  0
 24 29  2  0  0  0  0
 24 25  1  0  0  0  0
 25 26  2  0  0  0  0
 25 52  1  0  0  0  0
 26 27  1  0  0  0  0
 26 53  1  0  0  0  0
 27 28  2  0  0  0  0
 27 54  1  0  0  0  0
 28 33  1  0  0  0  0
 28 29  1  0  0  0  0
 29 30  1  0  0  0  0
 30 31  2  0  0  0  0
 30 55  1  0  0  0  0
 31 32  1  0  0  0  0
 31 56  1  0  0  0  0
 32 33  2  0  0  0  0
 32 57  1  0  0  0  0
 33 58  1  0  0  0  0
 34 59  1  0  0  0  0
 34 60  1  0  0  0  0
 61 62  1  0  0  0  0
M  CHG  1  61   1
M  END
$$$$
ZINC03834144
  -OEChem-08230709403D

 64 67  0     1  0  0  0  0  0999 V2000
   -3.7645   -8.1799   -3.1182 H   0  0  0  0  0  0  0  0  0  0  0  0
   -2.1625   -9.0265   -2.1902 C   0  0  0  0  0  0  0  0  0  0  0  0
   -1.0525   -8.7356   -1.2541 C   0  0  0  0  0  0  0  0  0  0  0  0
   -0.1487   -9.7394   -0.9063 C   0  0  0  0  0  0  0  0  0  0  0  0
    0.8835   -9.4624   -0.0337 C   0  0  0  0  0  0  0  0  0  0  0  0
    1.0232   -8.1917    0.4958 C   0  0  0  0  0  0  0  0  0  0  0  0
    0.1303   -7.1920    0.1543 C   0  0  0  0  0  0  0  0  0  0  0  0
   -0.9098   -7.4585   -0.7128 C   0  0  0  0  0  0  0  0  0  0  0  0
    0.2899   -5.8106    0.7351 C   0  0  0  0  0  0  0  0  0  0  0  0
    1.1842   -4.9725   -0.1806 C   0  0  1  0  0  0  0  0  0  0  0  0
    0.7705   -4.9697   -1.1890 H   0  0  0  0  0  0  0  0  0  0  0  0
    1.2513   -3.5594    0.3388 C   0  0  0  0  0  0  0  0  0  0  0  0
    2.2943   -3.1239    0.7785 O   0  0  0  0  0  0  0  0  0  0  0  0
    0.1522   -2.7797    0.3147 N   0  0  0  0  0  0  0  0  0  0  0  0
   -1.1484   -3.3316   -0.0886 C   0  0  0  0  0  0  0  0  0  0  0  0
   -1.7246   -2.4650   -1.2128 C   0  0  0  0  0  0  0  0  0  0  0  0
   -1.7762   -1.0066   -0.7518 C   0  0  0  0  0  0  0  0  0  0  0  0
   -0.3596   -0.5171   -0.4422 C   0  0  0  0  0  0  0  0  0  0  0  0
    0.2320   -1.3617    0.6907 C   0  0  2  0  0  0  0  0  0  0  0  0
   -0.3338   -1.1919    1.6067 H   0  0  0  0  0  0  0  0  0  0  0  0
    1.6728   -0.9770    0.9081 C   0  0  0  0  0  0  0  0  0  0  0  0
    2.4655   -1.0661    0.0007 O   0  0  0  0  0  0  0  0  0  0  0  0
    2.5314   -5.5475   -0.2071 N   0  0  0  0  0  0  0  0  0  0  0  0
    3.4256   -5.4981   -1.6001 S   0  0  0  0  0  0  0  0  0  0  0  0
    4.6765   -6.1026   -1.3014 O   0  0  0  0  0  0  0  0  0  0  0  0
    2.5814   -5.9687   -2.6416 O   0  0  0  0  0  0  0  0  0  0  0  0
    3.7558   -3.8024   -1.9471 C   0  0  0  0  0  0  0  0  0  0  0  0
    2.8671   -3.0782   -2.7397 C   0  0  0  0  0  0  0  0  0  0  0  0
    3.0898   -1.7657   -3.0222 C   0  0  0  0  0  0  0  0  0  0  0  0
    4.2381   -1.1311   -2.5184 C   0  0  0  0  0  0  0  0  0  0  0  0
    4.5052    0.2209   -2.7944 C   0  0  0  0  0  0  0  0  0  0  0  0
    5.6271    0.8023   -2.2891 C   0  0  0  0  0  0  0  0  0  0  0  0
    6.5186    0.0767   -1.5009 C   0  0  0  0  0  0  0  0  0  0  0  0
    6.2928   -1.2341   -1.2133 C   0  0  0  0  0  0  0  0  0  0  0  0
    5.1446   -1.8689   -1.7170 C   0  0  0  0  0  0  0  0  0  0  0  0
    4.8778   -3.2210   -1.4417 C   0  0  0  0  0  0  0  0  0  0  0  0
   -2.3040  -10.2907   -2.7194 N   0  0  0  0  0  0  0  0  0  0  0  0
   -0.2567  -10.7316   -1.3190 H   0  0  0  0  0  0  0  0  0  0  0  0
    1.5839  -10.2387    0.2364 H   0  0  0  0  0  0  0  0  0  0  0  0
    1.8328   -7.9795    1.1782 H   0  0  0  0  0  0  0  0  0  0  0  0
   -1.6090   -6.6783   -0.9753 H   0  0  0  0  0  0  0  0  0  0  0  0
    0.7462   -5.8821    1.7224 H   0  0  0  0  0  0  0  0  0  0  0  0
   -0.6882   -5.3371    0.8203 H   0  0  0  0  0  0  0  0  0  0  0  0
   -1.8283   -3.3244    0.7633 H   0  0  0  0  0  0  0  0  0  0  0  0
   -1.0195   -4.3537   -0.4446 H   0  0  0  0  0  0  0  0  0  0  0  0
   -2.7311   -2.8057   -1.4553 H   0  0  0  0  0  0  0  0  0  0  0  0
   -1.0902   -2.5452   -2.0955 H   0  0  0  0  0  0  0  0  0  0  0  0
   -2.3907   -0.9309    0.1454 H   0  0  0  0  0  0  0  0  0  0  0  0
   -2.2085   -0.3916   -1.5410 H   0  0  0  0  0  0  0  0  0  0  0  0
   -0.3947    0.5285   -0.1365 H   0  0  0  0  0  0  0  0  0  0  0  0
    0.2620   -0.6158   -1.3322 H   0  0  0  0  0  0  0  0  0  0  0  0
    2.8996   -5.9574    0.5913 H   0  0  0  0  0  0  0  0  0  0  0  0
    1.9863   -3.5647   -3.1320 H   0  0  0  0  0  0  0  0  0  0  0  0
    2.3904   -1.2160   -3.6348 H   0  0  0  0  0  0  0  0  0  0  0  0
    3.8232    0.7955   -3.4036 H   0  0  0  0  0  0  0  0  0  0  0  0
    5.8297    1.8415   -2.5023 H   0  0  0  0  0  0  0  0  0  0  0  0
    7.4020    0.5619   -1.1129 H   0  0  0  0  0  0  0  0  0  0  0  0
    6.9924   -1.7838   -0.6009 H   0  0  0  0  0  0  0  0  0  0  0  0
    5.5594   -3.7955   -0.8321 H   0  0  0  0  0  0  0  0  0  0  0  0
   -1.6765  -10.9902   -2.4789 H   0  0  0  0  0  0  0  0  0  0  0  0
   -3.0311  -10.4813   -3.3326 H   0  0  0  0  0  0  0  0  0  0  0  0
   -2.9845   -8.0293   -2.4783 N   0  3  0  0  0  0  0  0  0  0  0  0
   -2.8368   -7.1044   -2.0576 H   0  0  0  0  0  0  0  0  0  0  0  0
    2.0754   -0.5353    2.1101 O   0  5  0  0  0  0  0  0  0  0  0  0
  1 62  1  0  0  0  0
  2  3  1  0  0  0  0
  2 37  1  0  0  0  0
  2 62  2  0  0  0  0
  3  8  2  0  0  0  0
  3  4  1  0  0  0  0
  4  5  2  0  0  0  0
  4 38  1  0  0  0  0
  5  6  1  0  0  0  0
  5 39  1  0  0  0  0
  6  7  2  0  0  0  0
  6 40  1  0  0  0  0
  7  8  1  0  0  0  0
  7  9  1  0  0  0  0
  8 41  1  0  0  0  0
  9 10  1  0  0  0  0
  9 42  1  0  0  0  0
  9 43  1  0  0  0  0
 10 11  1  0  0  0  0
 10 12  1  0  0  0  0
 10 23  1  0  0  0  0
 12 13  2  0  0  0  0
 12 14  1  0  0  0  0
 14 19  1  0  0  0  0
 14 15  1  0  0  0  0
 15 16  1  0  0  0  0
 15 44  1  0  0  0  0
 15 45  1  0  0  0  0
 16 17  1  0  0  0  0
 16 46  1  0  0  0  0
 16 47  1  0  0  0  0
 17 18  1  0  0  0  0
 17 48  1  0  0  0  0
 17 49  1  0  0  0  0
 18 19  1  0  0  0  0
 18 50  1  0  0  0  0
 18 51  1  0  0  0  0
 19 20  1  0  0  0  0
 19 21  1  0  0  0  0
 21 22  2  0  0  0  0
 21 64  1  0  0  0  0
 23 24  1  0  0  0  0
 23 52  1  0  0  0  0
 24 25  2  0  0  0  0
 24 26  2  0  0  0  0
 24 27  1  0  0  0  0
 27 36  2  0  0  0  0
 27 28  1  0  0  0  0
 28 29  2  0  0  0  0
 28 53  1  0  0  0  0
 29 30  1  0  0  0  0
 29 54  1  0  0  0  0
 30 35  2  0  0  0  0
 30 31  1  0  0  0  0
 31 32  2  0  0  0  0
 31 55  1  0  0  0  0
 32 33  1  0  0  0  0
 32 56  1  0  0  0  0
 33 34  2  0  0  0  0
 33 57  1  0  0  0  0
 34 35  1  0  0  0  0
 34 58  1  0  0  0  0
 35 36  1  0  0  0  0
 36 59  1  0  0  0  0
 37 60  1  0  0  0  0
 37 61  1  0  0  0  0
 62 63  1  0  0  0  0
M  CHG  2  62   1  64  -1
M  END
$$$$
ZINC03834149
  -OEChem-08230709403D

 64 67  0     1  0  0  0  0  0999 V2000
    2.5951   -7.9911    4.9813 H   0  0  0  0  0  0  0  0  0  0  0  0
    3.8927   -6.5334    5.5610 C   0  0  0  0  0  0  0  0  0  0  0  0
    4.2771   -5.1265    5.3042 C   0  0  0  0  0  0  0  0  0  0  0  0
    5.3181   -4.5423    6.0257 C   0  0  0  0  0  0  0  0  0  0  0  0
    5.6718   -3.2313    5.7817 C   0  0  0  0  0  0  0  0  0  0  0  0
    4.9999   -2.4980    4.8197 C   0  0  0  0  0  0  0  0  0  0  0  0
    3.9631   -3.0701    4.1051 C   0  0  0  0  0  0  0  0  0  0  0  0
    3.6000   -4.3807    4.3401 C   0  0  0  0  0  0  0  0  0  0  0  0
    3.2324   -2.2626    3.0634 C   0  0  0  0  0  0  0  0  0  0  0  0
    2.0444   -1.5492    3.7119 C   0  0  1  0  0  0  0  0  0  0  0  0
    2.4058   -0.8698    4.4838 H   0  0  0  0  0  0  0  0  0  0  0  0
    1.2956   -0.7664    2.6641 C   0  0  0  0  0  0  0  0  0  0  0  0
    0.1789   -1.1068    2.3356 O   0  0  0  0  0  0  0  0  0  0  0  0
    1.8670    0.3120    2.0923 N   0  0  0  0  0  0  0  0  0  0  0  0
    1.1785    1.0440    1.0204 C   0  0  0  0  0  0  0  0  0  0  0  0
    1.1046    2.5253    1.4037 C   0  0  0  0  0  0  0  0  0  0  0  0
    2.5129    3.0393    1.7116 C   0  0  0  0  0  0  0  0  0  0  0  0
    3.0937    2.2625    2.8953 C   0  0  0  0  0  0  0  0  0  0  0  0
    3.1901    0.7781    2.5290 C   0  0  0  0  0  0  0  0  0  0  0  0
    2.4482    4.5050    2.0561 C   0  0  0  0  0  0  0  0  0  0  0  0
    1.3853    5.0794    2.0554 O   0  0  0  0  0  0  0  0  0  0  0  0
    1.1489   -2.5403    4.3137 N   0  0  0  0  0  0  0  0  0  0  0  0
    1.2917   -2.9178    5.9198 S   0  0  0  0  0  0  0  0  0  0  0  0
    0.2804   -3.8750    6.2034 O   0  0  0  0  0  0  0  0  0  0  0  0
    2.6696   -3.1724    6.1563 O   0  0  0  0  0  0  0  0  0  0  0  0
    0.8834   -1.4680    6.8341 C   0  0  0  0  0  0  0  0  0  0  0  0
    1.8888   -0.5639    7.1723 C   0  0  0  0  0  0  0  0  0  0  0  0
    1.6064    0.5682    7.8729 C   0  0  0  0  0  0  0  0  0  0  0  0
    0.2843    0.8265    8.2732 C   0  0  0  0  0  0  0  0  0  0  0  0
   -0.0446    1.9814    9.0036 C   0  0  0  0  0  0  0  0  0  0  0  0
   -1.3359    2.1989    9.3739 C   0  0  0  0  0  0  0  0  0  0  0  0
   -2.3405    1.2921    9.0404 C   0  0  0  0  0  0  0  0  0  0  0  0
   -2.0592    0.1630    8.3345 C   0  0  0  0  0  0  0  0  0  0  0  0
   -0.7371   -0.0954    7.9340 C   0  0  0  0  0  0  0  0  0  0  0  0
   -0.4080   -1.2505    7.2043 C   0  0  0  0  0  0  0  0  0  0  0  0
    4.5635   -7.2678    6.5143 N   0  0  0  0  0  0  0  0  0  0  0  0
    5.8463   -5.1151    6.7735 H   0  0  0  0  0  0  0  0  0  0  0  0
    6.4774   -2.7777    6.3399 H   0  0  0  0  0  0  0  0  0  0  0  0
    5.2834   -1.4734    4.6291 H   0  0  0  0  0  0  0  0  0  0  0  0
    2.7929   -4.8276    3.7786 H   0  0  0  0  0  0  0  0  0  0  0  0
    2.8727   -2.9254    2.2763 H   0  0  0  0  0  0  0  0  0  0  0  0
    3.9100   -1.5240    2.6349 H   0  0  0  0  0  0  0  0  0  0  0  0
    0.1706    0.6479    0.8965 H   0  0  0  0  0  0  0  0  0  0  0  0
    1.7311    0.9351    0.0872 H   0  0  0  0  0  0  0  0  0  0  0  0
    0.6825    3.0947    0.5756 H   0  0  0  0  0  0  0  0  0  0  0  0
    0.4739    2.6420    2.2850 H   0  0  0  0  0  0  0  0  0  0  0  0
    3.1495    2.8995    0.8380 H   0  0  0  0  0  0  0  0  0  0  0  0
    2.4443    2.3817    3.7626 H   0  0  0  0  0  0  0  0  0  0  0  0
    4.0873    2.6446    3.1295 H   0  0  0  0  0  0  0  0  0  0  0  0
    3.5096    0.2067    3.4005 H   0  0  0  0  0  0  0  0  0  0  0  0
    3.9090    0.6473    1.7202 H   0  0  0  0  0  0  0  0  0  0  0  0
    0.4725   -2.9753    3.7715 H   0  0  0  0  0  0  0  0  0  0  0  0
    2.9065   -0.7625    6.8699 H   0  0  0  0  0  0  0  0  0  0  0  0
    2.3952    1.2616    8.1247 H   0  0  0  0  0  0  0  0  0  0  0  0
    0.7234    2.6928    9.2690 H   0  0  0  0  0  0  0  0  0  0  0  0
   -1.5860    3.0872    9.9348 H   0  0  0  0  0  0  0  0  0  0  0  0
   -3.3572    1.4881    9.3472 H   0  0  0  0  0  0  0  0  0  0  0  0
   -2.8479   -0.5307    8.0835 H   0  0  0  0  0  0  0  0  0  0  0  0
   -1.1759   -1.9622    6.9390 H   0  0  0  0  0  0  0  0  0  0  0  0
    5.2876   -6.8634    7.0174 H   0  0  0  0  0  0  0  0  0  0  0  0
    4.3118   -8.1894    6.6825 H   0  0  0  0  0  0  0  0  0  0  0  0
    2.8968   -7.0267    4.8413 N   0  3  0  0  0  0  0  0  0  0  0  0
    2.4282   -6.4385    4.1422 H   0  0  0  0  0  0  0  0  0  0  0  0
    3.5715    5.1722    2.3637 O   0  5  0  0  0  0  0  0  0  0  0  0
  1 62  1  0  0  0  0
  2  3  1  0  0  0  0
  2 36  1  0  0  0  0
  2 62  2  0  0  0  0
  3  8  2  0  0  0  0
  3  4  1  0  0  0  0
  4  5  2  0  0  0  0
  4 37  1  0  0  0  0
  5  6  1  0  0  0  0
  5 38  1  0  0  0  0
  6  7  2  0  0  0  0
  6 39  1  0  0  0  0
  7  8  1  0  0  0  0
  7  9  1  0  0  0  0
  8 40  1  0  0  0  0
  9 10  1  0  0  0  0
  9 41  1  0  0  0  0
  9 42  1  0  0  0  0
 10 11  1  0  0  0  0
 10 12  1  0  0  0  0
 10 22  1  0  0  0  0
 12 13  2  0  0  0  0
 12 14  1  0  0  0  0
 14 19  1  0  0  0  0
 14 15  1  0  0  0  0
 15 16  1  0  0  0  0
 15 43  1  0  0  0  0
 15 44  1  0  0  0  0
 16 17  1  0  0  0  0
 16 45  1  0  0  0  0
 16 46  1  0  0  0  0
 17 18  1  0  0  0  0
 17 20  1  0  0  0  0
 17 47  1  0  0  0  0
 18 19  1  0  0  0  0
 18 48  1  0  0  0  0
 18 49  1  0  0  0  0
 19 50  1  0  0  0  0
 19 51  1  0  0  0  0
 20 21  2  0  0  0  0
 20 64  1  0  0  0  0
 22 23  1  0  0  0  0
 22 52  1  0  0  0  0
 23 24  2  0  0  0  0
 23 25  2  0  0  0  0
 23 26  1  0  0  0  0
 26 35  2  0  0  0  0
 26 27  1  0  0  0  0
 27 28  2  0  0  0  0
 27 53  1  0  0  0  0
 28 29  1  0  0  0  0
 28 54  1  0  0  0  0
 29 34  2  0  0  0  0
 29 30  1  0  0  0  0
 30 31  2  0  0  0  0
 30 55  1  0  0  0  0
 31 32  1  0  0  0  0
 31 56  1  0  0  0  0
 32 33  2  0  0  0  0
 32 57  1  0  0  0  0
 33 34  1  0  0  0  0
 33 58  1  0  0  0  0
 34 35  1  0  0  0  0
 35 59  1  0  0  0  0
 36 60  1  0  0  0  0
 36 61  1  0  0  0  0
 62 63  1  0  0  0  0
M  CHG  2  62   1  64  -1
M  END
$$$$
ZINC03834152
  -OEChem-08230709403D

 60 62  0     1  0  0  0  0  0999 V2000
    0.8953   12.3650    2.2190 H   0  0  0  0  0  0  0  0  0  0  0  0
   -0.8038   11.2549    2.3773 C   0  0  0  0  0  0  0  0  0  0  0  0
   -1.6851   10.3337    1.6237 C   0  0  0  0  0  0  0  0  0  0  0  0
   -2.8214    9.7989    2.2304 C   0  0  0  0  0  0  0  0  0  0  0  0
   -3.6389    8.9416    1.5231 C   0  0  0  0  0  0  0  0  0  0  0  0
   -3.3364    8.6166    0.2126 C   0  0  0  0  0  0  0  0  0  0  0  0
   -2.2080    9.1394   -0.3926 C   0  0  0  0  0  0  0  0  0  0  0  0
   -1.3825    9.9980    0.3047 C   0  0  0  0  0  0  0  0  0  0  0  0
   -1.8823    8.7755   -1.8184 C   0  0  0  0  0  0  0  0  0  0  0  0
   -0.9955    7.5288   -1.8368 C   0  0  1  0  0  0  0  0  0  0  0  0
   -1.4849    6.7267   -1.2844 H   0  0  0  0  0  0  0  0  0  0  0  0
   -0.7710    7.0931   -3.2618 C   0  0  0  0  0  0  0  0  0  0  0  0
    0.3504    7.0449   -3.7092 O   0  0  0  0  0  0  0  0  0  0  0  0
   -1.8166    6.7586   -4.0340 O   0  0  0  0  0  0  0  0  0  0  0  0
   -1.5257    6.3485   -5.3962 C   0  0  0  0  0  0  0  0  0  0  0  0
   -2.8320    6.0086   -6.1165 C   0  0  0  0  0  0  0  0  0  0  0  0
   -2.5254    5.5765   -7.5519 C   0  0  0  0  0  0  0  0  0  0  0  0
   -3.8317    5.2365   -8.2722 C   0  0  0  0  0  0  0  0  0  0  0  0
    0.2930    7.8369   -1.2115 N   0  0  0  0  0  0  0  0  0  0  0  0
    0.5361    7.5028    0.3922 S   0  0  0  0  0  0  0  0  0  0  0  0
   -0.5813    8.0335    1.0915 O   0  0  0  0  0  0  0  0  0  0  0  0
    1.8721    7.8854    0.6887 O   0  0  0  0  0  0  0  0  0  0  0  0
    0.4608    5.7522    0.5769 C   0  0  0  0  0  0  0  0  0  0  0  0
    1.6263    4.9980    0.4526 C   0  0  0  0  0  0  0  0  0  0  0  0
    1.6029    3.6442    0.5896 C   0  0  0  0  0  0  0  0  0  0  0  0
    0.3869    2.9936    0.8603 C   0  0  0  0  0  0  0  0  0  0  0  0
    0.3231    1.5974    1.0078 C   0  0  0  0  0  0  0  0  0  0  0  0
   -0.8724    1.0019    1.2692 C   0  0  0  0  0  0  0  0  0  0  0  0
   -2.0388    1.7556    1.3879 C   0  0  0  0  0  0  0  0  0  0  0  0
   -2.0142    3.1100    1.2571 C   0  0  0  0  0  0  0  0  0  0  0  0
   -0.7982    3.7604    0.9866 C   0  0  0  0  0  0  0  0  0  0  0  0
   -0.7346    5.1565    0.8382 C   0  0  0  0  0  0  0  0  0  0  0  0
   -1.1054   11.5847    3.6806 N   0  0  0  0  0  0  0  0  0  0  0  0
   -3.0611   10.0555    3.2518 H   0  0  0  0  0  0  0  0  0  0  0  0
   -4.5188    8.5264    1.9919 H   0  0  0  0  0  0  0  0  0  0  0  0
   -3.9817    7.9486   -0.3385 H   0  0  0  0  0  0  0  0  0  0  0  0
   -0.5038   10.4088   -0.1703 H   0  0  0  0  0  0  0  0  0  0  0  0
   -1.3556    9.6032   -2.2934 H   0  0  0  0  0  0  0  0  0  0  0  0
   -2.8054    8.5728   -2.3614 H   0  0  0  0  0  0  0  0  0  0  0  0
   -1.0224    7.1609   -5.9205 H   0  0  0  0  0  0  0  0  0  0  0  0
   -0.8799    5.4705   -5.3812 H   0  0  0  0  0  0  0  0  0  0  0  0
   -3.3353    5.1963   -5.5922 H   0  0  0  0  0  0  0  0  0  0  0  0
   -3.4778    6.8866   -6.1315 H   0  0  0  0  0  0  0  0  0  0  0  0
   -2.0221    6.3888   -8.0761 H   0  0  0  0  0  0  0  0  0  0  0  0
   -1.8797    4.6985   -7.5369 H   0  0  0  0  0  0  0  0  0  0  0  0
   -4.3350    4.4242   -7.7479 H   0  0  0  0  0  0  0  0  0  0  0  0
   -4.4775    6.1146   -8.2872 H   0  0  0  0  0  0  0  0  0  0  0  0
   -3.6133    4.9287   -9.2948 H   0  0  0  0  0  0  0  0  0  0  0  0
    1.0038    8.2366   -1.7368 H   0  0  0  0  0  0  0  0  0  0  0  0
    2.5621    5.4955    0.2450 H   0  0  0  0  0  0  0  0  0  0  0  0
    2.5139    3.0727    0.4904 H   0  0  0  0  0  0  0  0  0  0  0  0
    1.2180    1.0002    0.9140 H   0  0  0  0  0  0  0  0  0  0  0  0
   -0.9187   -0.0713    1.3817 H   0  0  0  0  0  0  0  0  0  0  0  0
   -2.9754    1.2577    1.5912 H   0  0  0  0  0  0  0  0  0  0  0  0
   -2.9253    3.6814    1.3555 H   0  0  0  0  0  0  0  0  0  0  0  0
   -1.6297    5.7536    0.9318 H   0  0  0  0  0  0  0  0  0  0  0  0
   -1.8950   11.2136    4.1046 H   0  0  0  0  0  0  0  0  0  0  0  0
   -0.5282   12.1881    4.1742 H   0  0  0  0  0  0  0  0  0  0  0  0
    0.2578   11.7270    1.7423 N   0  3  0  0  0  0  0  0  0  0  0  0
    0.4393   11.4510    0.7701 H   0  0  0  0  0  0  0  0  0  0  0  0
  1 59  1  0  0  0  0
  2  3  1  0  0  0  0
  2 33  1  0  0  0  0
  2 59  2  0  0  0  0
  3  8  2  0  0  0  0
  3  4  1  0  0  0  0
  4  5  2  0  0  0  0
  4 34  1  0  0  0  0
  5  6  1  0  0  0  0
  5 35  1  0  0  0  0
  6  7  2  0  0  0  0
  6 36  1  0  0  0  0
  7  8  1  0  0  0  0
  7  9  1  0  0  0  0
  8 37  1  0  0  0  0
  9 10  1  0  0  0  0
  9 38  1  0  0  0  0
  9 39  1  0  0  0  0
 10 11  1  0  0  0  0
 10 12  1  0  0  0  0
 10 19  1  0  0  0  0
 12 13  2  0  0  0  0
 12 14  1  0  0  0  0
 14 15  1  0  0  0  0
 15 16  1  0  0  0  0
 15 40  1  0  0  0  0
 15 41  1  0  0  0  0
 16 17  1  0  0  0  0
 16 42  1  0  0  0  0
 16 43  1  0  0  0  0
 17 18  1  0  0  0  0
 17 44  1  0  0  0  0
 17 45  1  0  0  0  0
 18 46  1  0  0  0  0
 18 47  1  0  0  0  0
 18 48  1  0  0  0  0
 19 20  1  0  0  0  0
 19 49  1  0  0  0  0
 20 21  2  0  0  0  0
 20 22  2  0  0  0  0
 20 23  1  0  0  0  0
 23 32  2  0  0  0  0
 23 24  1  0  0  0  0
 24 25  2  0  0  0  0
 24 50  1  0  0  0  0
 25 26  1  0  0  0  0
 25 51  1  0  0  0  0
 26 31  2  0  0  0  0
 26 27  1  0  0  0  0
 27 28  2  0  0  0  0
 27 52  1  0  0  0  0
 28 29  1  0  0  0  0
 28 53  1  0  0  0  0
 29 30  2  0  0  0  0
 29 54  1  0  0  0  0
 30 31  1  0  0  0  0
 30 55  1  0  0  0  0
 31 32  1  0  0  0  0
 32 56  1  0  0  0  0
 33 57  1  0  0  0  0
 33 58  1  0  0  0  0
 59 60  1  0  0  0  0
M  CHG  1  59   1
M  END
$$$$
ZINC03834153
  -OEChem-08230709403D

 68 71  0     1  0  0  0  0  0999 V2000
   -2.6537    3.3343   -0.7921 H   0  0  0  0  0  0  0  0  0  0  0  0
   -0.9201    2.3123   -0.4849 C   0  0  0  0  0  0  0  0  0  0  0  0
   -0.3766    0.9538   -0.2566 C   0  0  0  0  0  0  0  0  0  0  0  0
    0.9969    0.7656   -0.1039 C   0  0  0  0  0  0  0  0  0  0  0  0
    1.4966   -0.5017    0.1151 C   0  0  0  0  0  0  0  0  0  0  0  0
    0.6393   -1.5863    0.1706 C   0  0  0  0  0  0  0  0  0  0  0  0
   -0.7231   -1.4068    0.0137 C   0  0  0  0  0  0  0  0  0  0  0  0
   -1.2355   -0.1432   -0.1992 C   0  0  0  0  0  0  0  0  0  0  0  0
   -1.6501   -2.5934    0.0761 C   0  0  0  0  0  0  0  0  0  0  0  0
   -1.8244   -3.1786   -1.3268 C   0  0  1  0  0  0  0  0  0  0  0  0
   -0.8566   -3.5056   -1.7070 H   0  0  0  0  0  0  0  0  0  0  0  0
   -2.7642   -4.3552   -1.2670 C   0  0  0  0  0  0  0  0  0  0  0  0
   -3.8624   -4.2804   -1.7761 O   0  0  0  0  0  0  0  0  0  0  0  0
   -2.3843   -5.4903   -0.6477 N   0  0  0  0  0  0  0  0  0  0  0  0
   -3.2446   -6.6812   -0.6862 C   0  0  0  0  0  0  0  0  0  0  0  0
   -3.2709   -7.2251   -2.1142 C   0  0  0  0  0  0  0  0  0  0  0  0
   -1.9188   -7.8866   -2.4300 C   0  0  0  0  0  0  0  0  0  0  0  0
   -0.8857   -6.8075   -2.7335 C   0  0  0  0  0  0  0  0  0  0  0  0
    0.2082   -6.7801   -1.6505 C   0  0  0  0  0  0  0  0  0  0  0  0
   -0.4335   -6.8776   -0.2663 C   0  0  0  0  0  0  0  0  0  0  0  0
   -1.1223   -5.5483    0.0705 C   0  0  0  0  0  0  0  0  0  0  0  0
   -2.3785   -2.1556   -2.2171 N   0  0  0  0  0  0  0  0  0  0  0  0
   -1.3677   -1.2385   -3.1549 S   0  0  0  0  0  0  0  0  0  0  0  0
   -2.1961   -0.3696   -3.9151 O   0  0  0  0  0  0  0  0  0  0  0  0
   -0.3432   -0.7565   -2.2962 O   0  0  0  0  0  0  0  0  0  0  0  0
   -0.5919   -2.3269   -4.3030 C   0  0  0  0  0  0  0  0  0  0  0  0
    0.6156   -2.9349   -3.9642 C   0  0  0  0  0  0  0  0  0  0  0  0
    1.2381   -3.7848   -4.8257 C   0  0  0  0  0  0  0  0  0  0  0  0
    0.6635   -4.0464   -6.0812 C   0  0  0  0  0  0  0  0  0  0  0  0
    1.2802   -4.9130   -6.9999 C   0  0  0  0  0  0  0  0  0  0  0  0
    0.6943   -5.1430   -8.2064 C   0  0  0  0  0  0  0  0  0  0  0  0
   -0.5104   -4.5308   -8.5475 C   0  0  0  0  0  0  0  0  0  0  0  0
   -1.1361   -3.6857   -7.6836 C   0  0  0  0  0  0  0  0  0  0  0  0
   -0.5617   -3.4240   -6.4280 C   0  0  0  0  0  0  0  0  0  0  0  0
   -1.1780   -2.5569   -5.5096 C   0  0  0  0  0  0  0  0  0  0  0  0
   -0.0689    3.3943   -0.5412 N   0  0  0  0  0  0  0  0  0  0  0  0
    1.6675    1.6108   -0.1520 H   0  0  0  0  0  0  0  0  0  0  0  0
    2.5595   -0.6480    0.2386 H   0  0  0  0  0  0  0  0  0  0  0  0
    1.0356   -2.5770    0.3374 H   0  0  0  0  0  0  0  0  0  0  0  0
   -2.2996   -0.0042   -0.3209 H   0  0  0  0  0  0  0  0  0  0  0  0
   -1.2266   -3.3509    0.7357 H   0  0  0  0  0  0  0  0  0  0  0  0
   -2.6196   -2.2773    0.4611 H   0  0  0  0  0  0  0  0  0  0  0  0
   -2.8447   -7.4415   -0.0152 H   0  0  0  0  0  0  0  0  0  0  0  0
   -4.2536   -6.4122   -0.3737 H   0  0  0  0  0  0  0  0  0  0  0  0
   -3.4479   -6.4067   -2.8122 H   0  0  0  0  0  0  0  0  0  0  0  0
   -4.0679   -7.9629   -2.2070 H   0  0  0  0  0  0  0  0  0  0  0  0
   -2.0271   -8.5400   -3.2957 H   0  0  0  0  0  0  0  0  0  0  0  0
   -1.5912   -8.4722   -1.5710 H   0  0  0  0  0  0  0  0  0  0  0  0
   -1.3803   -5.8368   -2.7687 H   0  0  0  0  0  0  0  0  0  0  0  0
   -0.4275   -7.0112   -3.7013 H   0  0  0  0  0  0  0  0  0  0  0  0
    0.7692   -5.8486   -1.7253 H   0  0  0  0  0  0  0  0  0  0  0  0
    0.8843   -7.6225   -1.7967 H   0  0  0  0  0  0  0  0  0  0  0  0
    0.3356   -7.0871    0.4771 H   0  0  0  0  0  0  0  0  0  0  0  0
   -1.1710   -7.6802   -0.2631 H   0  0  0  0  0  0  0  0  0  0  0  0
   -0.4867   -4.7177   -0.2364 H   0  0  0  0  0  0  0  0  0  0  0  0
   -1.3075   -5.4925    1.1432 H   0  0  0  0  0  0  0  0  0  0  0  0
   -3.3376   -2.0156   -2.2574 H   0  0  0  0  0  0  0  0  0  0  0  0
    1.0618   -2.7318   -3.0019 H   0  0  0  0  0  0  0  0  0  0  0  0
    2.1716   -4.2517   -4.5481 H   0  0  0  0  0  0  0  0  0  0  0  0
    2.2140   -5.3944   -6.7493 H   0  0  0  0  0  0  0  0  0  0  0  0
    1.1702   -5.8096   -8.9104 H   0  0  0  0  0  0  0  0  0  0  0  0
   -0.9539   -4.7299   -9.5119 H   0  0  0  0  0  0  0  0  0  0  0  0
   -2.0692   -3.2181   -7.9616 H   0  0  0  0  0  0  0  0  0  0  0  0
   -2.1115   -2.0753   -5.7602 H   0  0  0  0  0  0  0  0  0  0  0  0
    0.8863    3.2661   -0.4312 H   0  0  0  0  0  0  0  0  0  0  0  0
   -0.4248    4.2841   -0.6906 H   0  0  0  0  0  0  0  0  0  0  0  0
   -2.2314    2.4195   -0.6327 N   0  3  0  0  0  0  0  0  0  0  0  0
   -2.8234    1.5818   -0.5868 H   0  0  0  0  0  0  0  0  0  0  0  0
  1 67  1  0  0  0  0
  2  3  1  0  0  0  0
  2 36  1  0  0  0  0
  2 67  2  0  0  0  0
  3  8  2  0  0  0  0
  3  4  1  0  0  0  0
  4  5  2  0  0  0  0
  4 37  1  0  0  0  0
  5  6  1  0  0  0  0
  5 38  1  0  0  0  0
  6  7  2  0  0  0  0
  6 39  1  0  0  0  0
  7  8  1  0  0  0  0
  7  9  1  0  0  0  0
  8 40  1  0  0  0  0
  9 10  1  0  0  0  0
  9 41  1  0  0  0  0
  9 42  1  0  0  0  0
 10 11  1  0  0  0  0
 10 12  1  0  0  0  0
 10 22  1  0  0  0  0
 12 13  2  0  0  0  0
 12 14  1  0  0  0  0
 14 21  1  0  0  0  0
 14 15  1  0  0  0  0
 15 16  1  0  0  0  0
 15 43  1  0  0  0  0
 15 44  1  0  0  0  0
 16 17  1  0  0  0  0
 16 45  1  0  0  0  0
 16 46  1  0  0  0  0
 17 18  1  0  0  0  0
 17 47  1  0  0  0  0
 17 48  1  0  0  0  0
 18 19  1  0  0  0  0
 18 49  1  0  0  0  0
 18 50  1  0  0  0  0
 19 20  1  0  0  0  0
 19 51  1  0  0  0  0
 19 52  1  0  0  0  0
 20 21  1  0  0  0  0
 20 53  1  0  0  0  0
 20 54  1  0  0  0  0
 21 55  1  0  0  0  0
 21 56  1  0  0  0  0
 22 23  1  0  0  0  0
 22 57  1  0  0  0  0
 23 24  2  0  0  0  0
 23 25  2  0  0  0  0
 23 26  1  0  0  0  0
 26 35  2  0  0  0  0
 26 27  1  0  0  0  0
 27 28  2  0  0  0  0
 27 58  1  0  0  0  0
 28 29  1  0  0  0  0
 28 59  1  0  0  0  0
 29 34  2  0  0  0  0
 29 30  1  0  0  0  0
 30 31  2  0  0  0  0
 30 60  1  0  0  0  0
 31 32  1  0  0  0  0
 31 61  1  0  0  0  0
 32 33  2  0  0  0  0
 32 62  1  0  0  0  0
 33 34  1  0  0  0  0
 33 63  1  0  0  0  0
 34 35  1  0  0  0  0
 35 64  1  0  0  0  0
 36 65  1  0  0  0  0
 36 66  1  0  0  0  0
 67 68  1  0  0  0  0
M  CHG  1  67   1
M  END
$$$$
ZINC03834155
  -OEChem-08230709403D

 59 62  0     1  0  0  0  0  0999 V2000
    4.3200    4.1324    5.2056 H   0  0  0  0  0  0  0  0  0  0  0  0
    2.8510    2.7674    5.5565 C   0  0  0  0  0  0  0  0  0  0  0  0
    2.0077    1.7462    4.8943 C   0  0  0  0  0  0  0  0  0  0  0  0
    1.0743    1.0213    5.6350 C   0  0  0  0  0  0  0  0  0  0  0  0
    0.2914    0.0710    5.0124 C   0  0  0  0  0  0  0  0  0  0  0  0
    0.4311   -0.1638    3.6560 C   0  0  0  0  0  0  0  0  0  0  0  0
    1.3547    0.5522    2.9160 C   0  0  0  0  0  0  0  0  0  0  0  0
    2.1471    1.5016    3.5285 C   0  0  0  0  0  0  0  0  0  0  0  0
    1.5002    0.2905    1.4391 C   0  0  0  0  0  0  0  0  0  0  0  0
    0.5505    1.2053    0.6630 C   0  0  1  0  0  0  0  0  0  0  0  0
    0.7384    2.2427    0.9396 H   0  0  0  0  0  0  0  0  0  0  0  0
    0.7807    1.0300   -0.8159 C   0  0  0  0  0  0  0  0  0  0  0  0
    0.1110    0.2377   -1.4442 O   0  0  0  0  0  0  0  0  0  0  0  0
    1.7308    1.7537   -1.4404 N   0  0  0  0  0  0  0  0  0  0  0  0
    2.6751    2.6726   -0.7882 C   0  0  0  0  0  0  0  0  0  0  0  0
    3.5527    3.2908   -1.8967 C   0  0  0  0  0  0  0  0  0  0  0  0
    2.6760    3.1220   -3.1656 C   0  0  0  0  0  0  0  0  0  0  0  0
    1.9910    1.7599   -2.8915 C   0  0  0  0  0  0  0  0  0  0  0  0
   -0.8355    0.8572    0.9862 N   0  0  0  0  0  0  0  0  0  0  0  0
   -1.9907    2.0413    1.0606 S   0  0  0  0  0  0  0  0  0  0  0  0
   -3.2194    1.3919    1.3575 O   0  0  0  0  0  0  0  0  0  0  0  0
   -1.4595    3.0762    1.8767 O   0  0  0  0  0  0  0  0  0  0  0  0
   -2.1546    2.7121   -0.5604 C   0  0  0  0  0  0  0  0  0  0  0  0
   -1.3654    3.7973   -0.9372 C   0  0  0  0  0  0  0  0  0  0  0  0
   -1.4632    4.3357   -2.1833 C   0  0  0  0  0  0  0  0  0  0  0  0
   -2.3810    3.7991   -3.1025 C   0  0  0  0  0  0  0  0  0  0  0  0
   -2.5151    4.3326   -4.3958 C   0  0  0  0  0  0  0  0  0  0  0  0
   -3.4143    3.7868   -5.2594 C   0  0  0  0  0  0  0  0  0  0  0  0
   -4.2073    2.7051   -4.8807 C   0  0  0  0  0  0  0  0  0  0  0  0
   -4.1052    2.1627   -3.6367 C   0  0  0  0  0  0  0  0  0  0  0  0
   -3.1873    2.6992   -2.7175 C   0  0  0  0  0  0  0  0  0  0  0  0
   -3.0537    2.1662   -1.4239 C   0  0  0  0  0  0  0  0  0  0  0  0
    2.7146    3.0032    6.9071 N   0  0  0  0  0  0  0  0  0  0  0  0
    0.9648    1.2032    6.6939 H   0  0  0  0  0  0  0  0  0  0  0  0
   -0.4317   -0.4909    5.5850 H   0  0  0  0  0  0  0  0  0  0  0  0
   -0.1837   -0.9089    3.1731 H   0  0  0  0  0  0  0  0  0  0  0  0
    2.8709    2.0569    2.9505 H   0  0  0  0  0  0  0  0  0  0  0  0
    1.2549   -0.7504    1.2285 H   0  0  0  0  0  0  0  0  0  0  0  0
    2.5273    0.4906    1.1340 H   0  0  0  0  0  0  0  0  0  0  0  0
    2.1280    3.4569   -0.2652 H   0  0  0  0  0  0  0  0  0  0  0  0
    3.3015    2.1230   -0.0854 H   0  0  0  0  0  0  0  0  0  0  0  0
    4.4906    2.7452   -2.0005 H   0  0  0  0  0  0  0  0  0  0  0  0
    3.7393    4.3455   -1.6943 H   0  0  0  0  0  0  0  0  0  0  0  0
    3.2927    3.0756   -4.0632 H   0  0  0  0  0  0  0  0  0  0  0  0
    1.9393    3.9218   -3.2407 H   0  0  0  0  0  0  0  0  0  0  0  0
    2.6562    0.9397   -3.1612 H   0  0  0  0  0  0  0  0  0  0  0  0
    1.0548    1.6880   -3.4451 H   0  0  0  0  0  0  0  0  0  0  0  0
   -1.0772   -0.0674    1.1524 H   0  0  0  0  0  0  0  0  0  0  0  0
   -0.6627    4.2145   -0.2312 H   0  0  0  0  0  0  0  0  0  0  0  0
   -0.8426    5.1743   -2.4626 H   0  0  0  0  0  0  0  0  0  0  0  0
   -1.9072    5.1707   -4.7029 H   0  0  0  0  0  0  0  0  0  0  0  0
   -3.5151    4.1985   -6.2527 H   0  0  0  0  0  0  0  0  0  0  0  0
   -4.9137    2.2912   -5.5851 H   0  0  0  0  0  0  0  0  0  0  0  0
   -4.7265    1.3248   -3.3572 H   0  0  0  0  0  0  0  0  0  0  0  0
   -3.6617    1.3283   -1.1167 H   0  0  0  0  0  0  0  0  0  0  0  0
    2.0660    2.5002    7.4242 H   0  0  0  0  0  0  0  0  0  0  0  0
    3.2670    3.6722    7.3410 H   0  0  0  0  0  0  0  0  0  0  0  0
    3.7166    3.4194    4.7957 N   0  3  0  0  0  0  0  0  0  0  0  0
    3.7806    3.2072    3.7931 H   0  0  0  0  0  0  0  0  0  0  0  0
  1 58  1  0  0  0  0
  2  3  1  0  0  0  0
  2 33  1  0  0  0  0
  2 58  2  0  0  0  0
  3  8  2  0  0  0  0
  3  4  1  0  0  0  0
  4  5  2  0  0  0  0
  4 34  1  0  0  0  0
  5  6  1  0  0  0  0
  5 35  1  0  0  0  0
  6  7  2  0  0  0  0
  6 36  1  0  0  0  0
  7  8  1  0  0  0  0
  7  9  1  0  0  0  0
  8 37  1  0  0  0  0
  9 10  1  0  0  0  0
  9 38  1  0  0  0  0
  9 39  1  0  0  0  0
 10 11  1  0  0  0  0
 10 12  1  0  0  0  0
 10 19  1  0  0  0  0
 12 13  2  0  0  0  0
 12 14  1  0  0  0  0
 14 18  1  0  0  0  0
 14 15  1  0  0  0  0
 15 16  1  0  0  0  0
 15 40  1  0  0  0  0
 15 41  1  0  0  0  0
 16 17  1  0  0  0  0
 16 42  1  0  0  0  0
 16 43  1  0  0  0  0
 17 18  1  0  0  0  0
 17 44  1  0  0  0  0
 17 45  1  0  0  0  0
 18 46  1  0  0  0  0
 18 47  1  0  0  0  0
 19 20  1  0  0  0  0
 19 48  1  0  0  0  0
 20 21  2  0  0  0  0
 20 22  2  0  0  0  0
 20 23  1  0  0  0  0
 23 32  2  0  0  0  0
 23 24  1  0  0  0  0
 24 25  2  0  0  0  0
 24 49  1  0  0  0  0
 25 26  1  0  0  0  0
 25 50  1  0  0  0  0
 26 31  2  0  0  0  0
 26 27  1  0  0  0  0
 27 28  2  0  0  0  0
 27 51  1  0  0  0  0
 28 29  1  0  0  0  0
 28 52  1  0  0  0  0
 29 30  2  0  0  0  0
 29 53  1  0  0  0  0
 30 31  1  0  0  0  0
 30 54  1  0  0  0  0
 31 32  1  0  0  0  0
 32 55  1  0  0  0  0
 33 56  1  0  0  0  0
 33 57  1  0  0  0  0
 58 59  1  0  0  0  0
M  CHG  1  58   1
M  END
$$$$
ZINC03834156
  -OEChem-08230709403D

 57 59  0     1  0  0  0  0  0999 V2000
    4.8581    2.2067    0.7804 H   0  0  0  0  0  0  0  0  0  0  0  0
    2.8893    2.6028    0.4471 C   0  0  0  0  0  0  0  0  0  0  0  0
    1.5819    1.9540    0.1966 C   0  0  0  0  0  0  0  0  0  0  0  0
    0.4371    2.7310    0.0198 C   0  0  0  0  0  0  0  0  0  0  0  0
   -0.7782    2.1206   -0.2133 C   0  0  0  0  0  0  0  0  0  0  0  0
   -0.8627    0.7409   -0.2718 C   0  0  0  0  0  0  0  0  0  0  0  0
    0.2692   -0.0349   -0.0977 C   0  0  0  0  0  0  0  0  0  0  0  0
    1.4904    0.5639    0.1360 C   0  0  0  0  0  0  0  0  0  0  0  0
    0.1686   -1.5371   -0.1640 C   0  0  0  0  0  0  0  0  0  0  0  0
    0.3844   -1.9996   -1.6063 C   0  0  1  0  0  0  0  0  0  0  0  0
    1.3557   -1.6516   -1.9580 H   0  0  0  0  0  0  0  0  0  0  0  0
    0.3394   -3.5049   -1.6633 C   0  0  0  0  0  0  0  0  0  0  0  0
   -0.5817   -4.0633   -2.2207 O   0  0  0  0  0  0  0  0  0  0  0  0
    1.3227   -4.2304   -1.0948 N   0  0  0  0  0  0  0  0  0  0  0  0
    1.3639   -5.6943   -1.2388 C   0  0  0  0  0  0  0  0  0  0  0  0
    2.7727   -6.0899   -1.7098 C   0  0  0  0  0  0  0  0  0  0  0  0
    3.7406   -5.5113   -0.8311 O   0  0  0  0  0  0  0  0  0  0  0  0
    3.7392   -4.0818   -0.8186 C   0  0  0  0  0  0  0  0  0  0  0  0
    2.3832   -3.5829   -0.3066 C   0  0  0  0  0  0  0  0  0  0  0  0
   -0.6704   -1.4468   -2.4594 N   0  0  0  0  0  0  0  0  0  0  0  0
   -0.3279   -1.0038   -4.0178 S   0  0  0  0  0  0  0  0  0  0  0  0
   -1.5448   -0.5373   -4.5843 O   0  0  0  0  0  0  0  0  0  0  0  0
    0.8440   -0.2020   -3.9639 O   0  0  0  0  0  0  0  0  0  0  0  0
    0.1052   -2.4704   -4.8932 C   0  0  0  0  0  0  0  0  0  0  0  0
    1.4241   -2.8815   -4.9431 C   0  0  0  0  0  0  0  0  0  0  0  0
    1.7632   -4.0345   -5.6261 C   0  0  0  0  0  0  0  0  0  0  0  0
    0.7849   -4.7712   -6.2672 C   0  0  0  0  0  0  0  0  0  0  0  0
   -0.5332   -4.3575   -6.2213 C   0  0  0  0  0  0  0  0  0  0  0  0
   -0.8731   -3.2069   -5.5346 C   0  0  0  0  0  0  0  0  0  0  0  0
    1.1554   -6.0255   -7.0157 C   0  0  0  0  0  0  0  0  0  0  0  0
    2.9765    3.9766    0.5063 N   0  0  0  0  0  0  0  0  0  0  0  0
    0.5019    3.8080    0.0649 H   0  0  0  0  0  0  0  0  0  0  0  0
   -1.6645    2.7213   -0.3547 H   0  0  0  0  0  0  0  0  0  0  0  0
   -1.8161    0.2677   -0.4545 H   0  0  0  0  0  0  0  0  0  0  0  0
    2.3734   -0.0429    0.2721 H   0  0  0  0  0  0  0  0  0  0  0  0
    0.9300   -1.9808    0.4776 H   0  0  0  0  0  0  0  0  0  0  0  0
   -0.8191   -1.8504    0.1741 H   0  0  0  0  0  0  0  0  0  0  0  0
    1.1494   -6.1638   -0.2787 H   0  0  0  0  0  0  0  0  0  0  0  0
    0.6265   -6.0116   -1.9760 H   0  0  0  0  0  0  0  0  0  0  0  0
    2.9365   -5.7242   -2.7234 H   0  0  0  0  0  0  0  0  0  0  0  0
    2.8697   -7.1755   -1.6944 H   0  0  0  0  0  0  0  0  0  0  0  0
    3.9066   -3.7088   -1.8290 H   0  0  0  0  0  0  0  0  0  0  0  0
    4.5311   -3.7227   -0.1612 H   0  0  0  0  0  0  0  0  0  0  0  0
    2.3210   -2.5012   -0.4263 H   0  0  0  0  0  0  0  0  0  0  0  0
    2.2692   -3.8428    0.7458 H   0  0  0  0  0  0  0  0  0  0  0  0
   -1.5696   -1.3404   -2.1114 H   0  0  0  0  0  0  0  0  0  0  0  0
    2.1890   -2.3037   -4.4456 H   0  0  0  0  0  0  0  0  0  0  0  0
    2.7931   -4.3579   -5.6617 H   0  0  0  0  0  0  0  0  0  0  0  0
   -1.2976   -4.9331   -6.7222 H   0  0  0  0  0  0  0  0  0  0  0  0
   -1.9029   -2.8835   -5.4991 H   0  0  0  0  0  0  0  0  0  0  0  0
    1.3883   -5.7756   -8.0508 H   0  0  0  0  0  0  0  0  0  0  0  0
    2.0266   -6.4841   -6.5479 H   0  0  0  0  0  0  0  0  0  0  0  0
    0.3192   -6.7244   -6.9900 H   0  0  0  0  0  0  0  0  0  0  0  0
    2.1815    4.5187    0.3840 H   0  0  0  0  0  0  0  0  0  0  0  0
    3.8328    4.4016    0.6704 H   0  0  0  0  0  0  0  0  0  0  0  0
    3.9359    1.8074    0.6055 N   0  3  0  0  0  0  0  0  0  0  0  0
    3.8192    0.7887    0.5523 H   0  0  0  0  0  0  0  0  0  0  0  0
  1 56  1  0  0  0  0
  2  3  1  0  0  0  0
  2 31  1  0  0  0  0
  2 56  2  0  0  0  0
  3  8  2  0  0  0  0
  3  4  1  0  0  0  0
  4  5  2  0  0  0  0
  4 32  1  0  0  0  0
  5  6  1  0  0  0  0
  5 33  1  0  0  0  0
  6  7  2  0  0  0  0
  6 34  1  0  0  0  0
  7  8  1  0  0  0  0
  7  9  1  0  0  0  0
  8 35  1  0  0  0  0
  9 10  1  0  0  0  0
  9 36  1  0  0  0  0
  9 37  1  0  0  0  0
 10 11  1  0  0  0  0
 10 12  1  0  0  0  0
 10 20  1  0  0  0  0
 12 13  2  0  0  0  0
 12 14  1  0  0  0  0
 14 19  1  0  0  0  0
 14 15  1  0  0  0  0
 15 16  1  0  0  0  0
 15 38  1  0  0  0  0
 15 39  1  0  0  0  0
 16 17  1  0  0  0  0
 16 40  1  0  0  0  0
 16 41  1  0  0  0  0
 17 18  1  0  0  0  0
 18 19  1  0  0  0  0
 18 42  1  0  0  0  0
 18 43  1  0  0  0  0
 19 44  1  0  0  0  0
 19 45  1  0  0  0  0
 20 21  1  0  0  0  0
 20 46  1  0  0  0  0
 21 22  2  0  0  0  0
 21 23  2  0  0  0  0
 21 24  1  0  0  0  0
 24 29  2  0  0  0  0
 24 25  1  0  0  0  0
 25 26  2  0  0  0  0
 25 47  1  0  0  0  0
 26 27  1  0  0  0  0
 26 48  1  0  0  0  0
 27 28  2  0  0  0  0
 27 30  1  0  0  0  0
 28 29  1  0  0  0  0
 28 49  1  0  0  0  0
 29 50  1  0  0  0  0
 30 51  1  0  0  0  0
 30 52  1  0  0  0  0
 30 53  1  0  0  0  0
 31 54  1  0  0  0  0
 31 55  1  0  0  0  0
 56 57  1  0  0  0  0
M  CHG  1  56   1
M  END
$$$$
ZINC03834157
  -OEChem-08230709403D

 88 90  0     1  0  0  0  0  0999 V2000
   -3.3944   -2.8628   -3.9965 H   0  0  0  0  0  0  0  0  0  0  0  0
   -1.8089   -2.6401   -5.2539 C   0  0  0  0  0  0  0  0  0  0  0  0
   -0.4077   -2.1646   -5.3121 C   0  0  0  0  0  0  0  0  0  0  0  0
    0.3053   -2.2316   -6.5091 C   0  0  0  0  0  0  0  0  0  0  0  0
    1.6105   -1.7871   -6.5570 C   0  0  0  0  0  0  0  0  0  0  0  0
    2.2124   -1.2760   -5.4208 C   0  0  0  0  0  0  0  0  0  0  0  0
    1.5104   -1.2066   -4.2311 C   0  0  0  0  0  0  0  0  0  0  0  0
    0.2060   -1.6529   -4.1694 C   0  0  0  0  0  0  0  0  0  0  0  0
    2.1732   -0.6482   -2.9983 C   0  0  0  0  0  0  0  0  0  0  0  0
    1.9354    0.8617   -2.9309 C   0  0  1  0  0  0  0  0  0  0  0  0
    0.8652    1.0633   -2.9769 H   0  0  0  0  0  0  0  0  0  0  0  0
    2.4931    1.4010   -1.6390 C   0  0  0  0  0  0  0  0  0  0  0  0
    3.5844    1.9300   -1.6235 O   0  0  0  0  0  0  0  0  0  0  0  0
    1.7793    1.2953   -0.5006 N   0  0  0  0  0  0  0  0  0  0  0  0
    0.4889    0.5919   -0.4895 C   0  0  0  0  0  0  0  0  0  0  0  0
    0.5450   -0.5081    0.5842 C   0  0  0  0  0  0  0  0  0  0  0  0
    1.0401    0.0833    1.8351 N   0  0  0  0  0  0  0  0  0  0  0  0
    2.3278    0.7915    1.8227 C   0  0  0  0  0  0  0  0  0  0  0  0
    2.2745    1.8867    0.7503 C   0  0  0  0  0  0  0  0  0  0  0  0
    0.1630   -0.0464    3.2338 S   0  0  0  0  0  0  0  0  0  0  0  0
   -0.6144   -1.2241    3.0662 O   0  0  0  0  0  0  0  0  0  0  0  0
    1.1257    0.0440    4.2751 O   0  0  0  0  0  0  0  0  0  0  0  0
   -0.9115    1.4150    3.2475 C   0  0  0  0  0  0  0  0  0  0  0  0
    2.6037    1.5123   -4.0606 N   0  0  0  0  0  0  0  0  0  0  0  0
    1.7072    2.2744   -5.2259 S   0  0  0  0  0  0  0  0  0  0  0  0
    2.6323    2.8695   -6.1255 O   0  0  0  0  0  0  0  0  0  0  0  0
    0.7207    1.3447   -5.6521 O   0  0  0  0  0  0  0  0  0  0  0  0
    0.8473    3.5964   -4.4402 C   0  0  0  0  0  0  0  0  0  0  0  0
    1.4556    4.8297   -4.2998 C   0  0  0  0  0  0  0  0  0  0  0  0
    0.7793    5.8682   -3.6872 C   0  0  0  0  0  0  0  0  0  0  0  0
   -0.5016    5.6705   -3.2065 C   0  0  0  0  0  0  0  0  0  0  0  0
   -1.1080    4.4358   -3.3425 C   0  0  0  0  0  0  0  0  0  0  0  0
   -0.4333    3.3986   -3.9590 C   0  0  0  0  0  0  0  0  0  0  0  0
   -1.0943    2.0523   -4.1069 C   0  0  0  0  0  0  0  0  0  0  0  0
   -2.0490    1.8213   -2.9339 C   0  0  0  0  0  0  0  0  0  0  0  0
   -1.8796    2.0112   -5.4193 C   0  0  0  0  0  0  0  0  0  0  0  0
   -1.2371    6.8012   -2.5344 C   0  0  0  0  0  0  0  0  0  0  0  0
   -0.4493    7.2639   -1.3071 C   0  0  0  0  0  0  0  0  0  0  0  0
   -1.3854    7.9669   -3.5144 C   0  0  0  0  0  0  0  0  0  0  0  0
    2.8541    5.0437   -4.8187 C   0  0  0  0  0  0  0  0  0  0  0  0
    2.7986    5.8537   -6.1156 C   0  0  0  0  0  0  0  0  0  0  0  0
    3.6741    5.8061   -3.7760 C   0  0  0  0  0  0  0  0  0  0  0  0
   -2.4109   -3.1500   -6.3836 N   0  0  0  0  0  0  0  0  0  0  0  0
   -0.1632   -2.6310   -7.3964 H   0  0  0  0  0  0  0  0  0  0  0  0
    2.1636   -1.8384   -7.4832 H   0  0  0  0  0  0  0  0  0  0  0  0
    3.2345   -0.9296   -5.4632 H   0  0  0  0  0  0  0  0  0  0  0  0
   -0.3399   -1.6023   -3.2388 H   0  0  0  0  0  0  0  0  0  0  0  0
    3.2444   -0.8457   -3.0407 H   0  0  0  0  0  0  0  0  0  0  0  0
    1.7510   -1.1224   -2.1123 H   0  0  0  0  0  0  0  0  0  0  0  0
   -0.3094    1.2959   -0.2545 H   0  0  0  0  0  0  0  0  0  0  0  0
    0.3086    0.1431   -1.4663 H   0  0  0  0  0  0  0  0  0  0  0  0
    1.2192   -1.3021    0.2629 H   0  0  0  0  0  0  0  0  0  0  0  0
   -0.4527   -0.9173    0.7428 H   0  0  0  0  0  0  0  0  0  0  0  0
    3.1289    0.0902    1.5897 H   0  0  0  0  0  0  0  0  0  0  0  0
    2.5092    1.2431    2.7981 H   0  0  0  0  0  0  0  0  0  0  0  0
    3.2734    2.2933    0.5925 H   0  0  0  0  0  0  0  0  0  0  0  0
    1.6018    2.6828    1.0700 H   0  0  0  0  0  0  0  0  0  0  0  0
   -1.5532    1.4024    2.3665 H   0  0  0  0  0  0  0  0  0  0  0  0
   -1.5281    1.4042    4.1463 H   0  0  0  0  0  0  0  0  0  0  0  0
   -0.2989    2.3165    3.2380 H   0  0  0  0  0  0  0  0  0  0  0  0
    3.5714    1.4967   -4.1261 H   0  0  0  0  0  0  0  0  0  0  0  0
    1.2530    6.8330   -3.5812 H   0  0  0  0  0  0  0  0  0  0  0  0
   -2.1088    4.2813   -2.9669 H   0  0  0  0  0  0  0  0  0  0  0  0
   -0.3328    1.2726   -4.1145 H   0  0  0  0  0  0  0  0  0  0  0  0
   -2.8674    2.5396   -2.9846 H   0  0  0  0  0  0  0  0  0  0  0  0
   -2.4502    0.8091   -2.9858 H   0  0  0  0  0  0  0  0  0  0  0  0
   -1.5097    1.9506   -1.9955 H   0  0  0  0  0  0  0  0  0  0  0  0
   -1.1994    2.1758   -6.2551 H   0  0  0  0  0  0  0  0  0  0  0  0
   -2.3576    1.0375   -5.5264 H   0  0  0  0  0  0  0  0  0  0  0  0
   -2.6412    2.7910   -5.4117 H   0  0  0  0  0  0  0  0  0  0  0  0
   -2.2245    6.4591   -2.2246 H   0  0  0  0  0  0  0  0  0  0  0  0
   -0.3437    6.4335   -0.6089 H   0  0  0  0  0  0  0  0  0  0  0  0
    0.5382    7.6060   -1.6168 H   0  0  0  0  0  0  0  0  0  0  0  0
   -0.9813    8.0817   -0.8211 H   0  0  0  0  0  0  0  0  0  0  0  0
   -1.9466    7.6373   -4.3888 H   0  0  0  0  0  0  0  0  0  0  0  0
   -1.9173    8.7847   -3.0283 H   0  0  0  0  0  0  0  0  0  0  0  0
   -0.3979    8.3090   -3.8241 H   0  0  0  0  0  0  0  0  0  0  0  0
    3.3212    4.0781   -5.0132 H   0  0  0  0  0  0  0  0  0  0  0  0
    2.4146    6.8517   -5.9044 H   0  0  0  0  0  0  0  0  0  0  0  0
    3.8002    5.9316   -6.5385 H   0  0  0  0  0  0  0  0  0  0  0  0
    2.1413    5.3547   -6.8277 H   0  0  0  0  0  0  0  0  0  0  0  0
    4.6856    5.9608   -4.1514 H   0  0  0  0  0  0  0  0  0  0  0  0
    3.2070    6.7716   -3.5816 H   0  0  0  0  0  0  0  0  0  0  0  0
    3.7137    5.2290   -2.8522 H   0  0  0  0  0  0  0  0  0  0  0  0
   -1.9168   -3.1974   -7.2170 H   0  0  0  0  0  0  0  0  0  0  0  0
   -3.3287   -3.4615   -6.3455 H   0  0  0  0  0  0  0  0  0  0  0  0
   -2.4282   -2.5483   -4.0872 N   0  3  0  0  0  0  0  0  0  0  0  0
   -1.9360   -2.1605   -3.2738 H   0  0  0  0  0  0  0  0  0  0  0  0
  1 87  1  0  0  0  0
  2  3  1  0  0  0  0
  2 43  1  0  0  0  0
  2 87  2  0  0  0  0
  3  8  2  0  0  0  0
  3  4  1  0  0  0  0
  4  5  2  0  0  0  0
  4 44  1  0  0  0  0
  5  6  1  0  0  0  0
  5 45  1  0  0  0  0
  6  7  2  0  0  0  0
  6 46  1  0  0  0  0
  7  8  1  0  0  0  0
  7  9  1  0  0  0  0
  8 47  1  0  0  0  0
  9 10  1  0  0  0  0
  9 48  1  0  0  0  0
  9 49  1  0  0  0  0
 10 11  1  0  0  0  0
 10 12  1  0  0  0  0
 10 24  1  0  0  0  0
 12 13  2  0  0  0  0
 12 14  1  0  0  0  0
 14 19  1  0  0  0  0
 14 15  1  0  0  0  0
 15 16  1  0  0  0  0
 15 50  1  0  0  0  0
 15 51  1  0  0  0  0
 16 17  1  0  0  0  0
 16 52  1  0  0  0  0
 16 53  1  0  0  0  0
 17 18  1  0  0  0  0
 17 20  1  0  0  0  0
 18 19  1  0  0  0  0
 18 54  1  0  0  0  0
 18 55  1  0  0  0  0
 19 56  1  0  0  0  0
 19 57  1  0  0  0  0
 20 21  2  0  0  0  0
 20 22  2  0  0  0  0
 20 23  1  0  0  0  0
 23 58  1  0  0  0  0
 23 59  1  0  0  0  0
 23 60  1  0  0  0  0
 24 25  1  0  0  0  0
 24 61  1  0  0  0  0
 25 26  2  0  0  0  0
 25 27  2  0  0  0  0
 25 28  1  0  0  0  0
 28 33  2  0  0  0  0
 28 29  1  0  0  0  0
 29 30  2  0  0  0  0
 29 40  1  0  0  0  0
 30 31  1  0  0  0  0
 30 62  1  0  0  0  0
 31 32  2  0  0  0  0
 31 37  1  0  0  0  0
 32 33  1  0  0  0  0
 32 63  1  0  0  0  0
 33 34  1  0  0  0  0
 34 35  1  0  0  0  0
 34 36  1  0  0  0  0
 34 64  1  0  0  0  0
 35 65  1  0  0  0  0
 35 66  1  0  0  0  0
 35 67  1  0  0  0  0
 36 68  1  0  0  0  0
 36 69  1  0  0  0  0
 36 70  1  0  0  0  0
 37 38  1  0  0  0  0
 37 39  1  0  0  0  0
 37 71  1  0  0  0  0
 38 72  1  0  0  0  0
 38 73  1  0  0  0  0
 38 74  1  0  0  0  0
 39 75  1  0  0  0  0
 39 76  1  0  0  0  0
 39 77  1  0  0  0  0
 40 41  1  0  0  0  0
 40 42  1  0  0  0  0
 40 78  1  0  0  0  0
 41 79  1  0  0  0  0
 41 80  1  0  0  0  0
 41 81  1  0  0  0  0
 42 82  1  0  0  0  0
 42 83  1  0  0  0  0
 42 84  1  0  0  0  0
 43 85  1  0  0  0  0
 43 86  1  0  0  0  0
 87 88  1  0  0  0  0
M  CHG  1  87   1
M  END
$$$$
ZINC03834175
  -OEChem-08230709403D

 84 87  0     1  0  0  0  0  0999 V2000
    3.9737   -2.4488    5.1177 H   0  0  0  0  0  0  0  0  0  0  0  0
    3.0836   -1.3630    6.5917 C   0  0  0  0  0  0  0  0  0  0  0  0
    2.6454    0.0063    6.9471 C   0  0  0  0  0  0  0  0  0  0  0  0
    2.0365    0.2492    8.1782 C   0  0  0  0  0  0  0  0  0  0  0  0
    1.6308    1.5271    8.5038 C   0  0  0  0  0  0  0  0  0  0  0  0
    1.8320    2.5675    7.6141 C   0  0  0  0  0  0  0  0  0  0  0  0
    2.4302    2.3318    6.3895 C   0  0  0  0  0  0  0  0  0  0  0  0
    2.8403    1.0579    6.0524 C   0  0  0  0  0  0  0  0  0  0  0  0
    2.6400    3.4695    5.4237 C   0  0  0  0  0  0  0  0  0  0  0  0
    1.4195    3.5941    4.5095 C   0  0  1  0  0  0  0  0  0  0  0  0
    0.5187    3.6859    5.1164 H   0  0  0  0  0  0  0  0  0  0  0  0
    1.5659    4.8162    3.6399 C   0  0  0  0  0  0  0  0  0  0  0  0
    1.7317    4.6937    2.4448 O   0  0  0  0  0  0  0  0  0  0  0  0
    1.5125    6.0453    4.1904 N   0  0  0  0  0  0  0  0  0  0  0  0
    1.5401    7.2461    3.3435 C   0  0  0  0  0  0  0  0  0  0  0  0
    0.3048    8.1012    3.6731 C   0  0  0  0  0  0  0  0  0  0  0  0
    0.2242    8.2647    5.1314 N   0  0  0  0  0  0  0  0  0  0  0  0
    0.2022    7.0640    5.9787 C   0  0  0  0  0  0  0  0  0  0  0  0
    1.4319    6.2088    5.6487 C   0  0  0  0  0  0  0  0  0  0  0  0
    0.1587    9.7749    5.8078 S   0  0  0  0  0  0  0  0  0  0  0  0
   -0.4072   10.5998    4.7987 O   0  0  0  0  0  0  0  0  0  0  0  0
   -0.5078    9.5878    7.0487 O   0  0  0  0  0  0  0  0  0  0  0  0
    1.8905   10.2339    6.0918 C   0  0  0  0  0  0  0  0  0  0  0  0
    1.3191    2.4021    3.6637 N   0  0  0  0  0  0  0  0  0  0  0  0
   -0.0053    1.4148    3.7782 S   0  0  0  0  0  0  0  0  0  0  0  0
   -0.1562    1.0957    5.1548 O   0  0  0  0  0  0  0  0  0  0  0  0
    0.1437    0.4175    2.7771 O   0  0  0  0  0  0  0  0  0  0  0  0
   -1.4119    2.3752    3.3268 C   0  0  0  0  0  0  0  0  0  0  0  0
   -1.6928    2.6054    1.9925 C   0  0  0  0  0  0  0  0  0  0  0  0
   -2.7908    3.3630    1.6403 C   0  0  0  0  0  0  0  0  0  0  0  0
   -3.6233    3.8887    2.6236 C   0  0  0  0  0  0  0  0  0  0  0  0
   -3.3411    3.6545    3.9578 C   0  0  0  0  0  0  0  0  0  0  0  0
   -2.2342    2.8980    4.3055 C   0  0  0  0  0  0  0  0  0  0  0  0
   -1.9262    2.6436    5.7585 C   0  0  0  0  0  0  0  0  0  0  0  0
   -4.2177    4.2040    5.0545 C   0  0  0  0  0  0  0  0  0  0  0  0
   -5.0875    5.3356    4.5009 C   0  0  0  0  0  0  0  0  0  0  0  0
   -5.7309    4.8536    3.1945 C   0  0  0  0  0  0  0  0  0  0  0  0
   -4.6942    4.6302    2.2376 O   0  0  0  0  0  0  0  0  0  0  0  0
   -6.4909    3.5496    3.4448 C   0  0  0  0  0  0  0  0  0  0  0  0
   -6.6952    5.9198    2.6709 C   0  0  0  0  0  0  0  0  0  0  0  0
   -3.0925    3.6175    0.1859 C   0  0  0  0  0  0  0  0  0  0  0  0
   -0.7967    2.0343    0.9238 C   0  0  0  0  0  0  0  0  0  0  0  0
    2.8897   -2.4000    7.4778 N   0  0  0  0  0  0  0  0  0  0  0  0
    1.8832   -0.5613    8.8754 H   0  0  0  0  0  0  0  0  0  0  0  0
    1.1589    1.7164    9.4565 H   0  0  0  0  0  0  0  0  0  0  0  0
    1.5168    3.5669    7.8752 H   0  0  0  0  0  0  0  0  0  0  0  0
    3.3108    0.8758    5.0975 H   0  0  0  0  0  0  0  0  0  0  0  0
    3.5272    3.2754    4.8209 H   0  0  0  0  0  0  0  0  0  0  0  0
    2.7741    4.3977    5.9792 H   0  0  0  0  0  0  0  0  0  0  0  0
    2.4472    7.8156    3.5458 H   0  0  0  0  0  0  0  0  0  0  0  0
    1.5152    6.9538    2.2937 H   0  0  0  0  0  0  0  0  0  0  0  0
   -0.5947    7.6037    3.3105 H   0  0  0  0  0  0  0  0  0  0  0  0
    0.3983    9.0786    3.2000 H   0  0  0  0  0  0  0  0  0  0  0  0
   -0.7046    6.4928    5.7802 H   0  0  0  0  0  0  0  0  0  0  0  0
    0.2294    7.3539    7.0290 H   0  0  0  0  0  0  0  0  0  0  0  0
    1.3353    5.2316    6.1216 H   0  0  0  0  0  0  0  0  0  0  0  0
    2.3315    6.7063    6.0113 H   0  0  0  0  0  0  0  0  0  0  0  0
    2.4251   10.2404    5.1419 H   0  0  0  0  0  0  0  0  0  0  0  0
    1.9344   11.2265    6.5402 H   0  0  0  0  0  0  0  0  0  0  0  0
    2.3526    9.5108    6.7638 H   0  0  0  0  0  0  0  0  0  0  0  0
    2.0285    2.1914    3.0366 H   0  0  0  0  0  0  0  0  0  0  0  0
   -1.0720    3.2498    6.0603 H   0  0  0  0  0  0  0  0  0  0  0  0
   -2.7921    2.9084    6.3652 H   0  0  0  0  0  0  0  0  0  0  0  0
   -1.6915    1.5887    5.9009 H   0  0  0  0  0  0  0  0  0  0  0  0
   -4.8574    3.4101    5.4396 H   0  0  0  0  0  0  0  0  0  0  0  0
   -3.5924    4.5883    5.8604 H   0  0  0  0  0  0  0  0  0  0  0  0
   -5.8649    5.5878    5.2221 H   0  0  0  0  0  0  0  0  0  0  0  0
   -4.4695    6.2119    4.3054 H   0  0  0  0  0  0  0  0  0  0  0  0
   -7.2685    3.7195    4.1894 H   0  0  0  0  0  0  0  0  0  0  0  0
   -6.9466    3.2103    2.5144 H   0  0  0  0  0  0  0  0  0  0  0  0
   -5.7991    2.7899    3.8087 H   0  0  0  0  0  0  0  0  0  0  0  0
   -6.1486    6.8443    2.4851 H   0  0  0  0  0  0  0  0  0  0  0  0
   -7.1503    5.5739    1.7428 H   0  0  0  0  0  0  0  0  0  0  0  0
   -7.4739    6.1007    3.4120 H   0  0  0  0  0  0  0  0  0  0  0  0
   -3.7422    2.8290   -0.1938 H   0  0  0  0  0  0  0  0  0  0  0  0
   -3.5912    4.5811    0.0815 H   0  0  0  0  0  0  0  0  0  0  0  0
   -2.1621    3.6265   -0.3820 H   0  0  0  0  0  0  0  0  0  0  0  0
   -1.1547    1.0447    0.6401 H   0  0  0  0  0  0  0  0  0  0  0  0
    0.2210    1.9567    1.3064 H   0  0  0  0  0  0  0  0  0  0  0  0
   -0.8082    2.6886    0.0521 H   0  0  0  0  0  0  0  0  0  0  0  0
    2.4662   -2.2334    8.3344 H   0  0  0  0  0  0  0  0  0  0  0  0
    3.1767   -3.2969    7.2451 H   0  0  0  0  0  0  0  0  0  0  0  0
    3.6549   -1.5244    5.4083 N   0  3  0  0  0  0  0  0  0  0  0  0
    3.7770   -0.7192    4.7830 H   0  0  0  0  0  0  0  0  0  0  0  0
  1 83  1  0  0  0  0
  2  3  1  0  0  0  0
  2 43  1  0  0  0  0
  2 83  2  0  0  0  0
  3  8  2  0  0  0  0
  3  4  1  0  0  0  0
  4  5  2  0  0  0  0
  4 44  1  0  0  0  0
  5  6  1  0  0  0  0
  5 45  1  0  0  0  0
  6  7  2  0  0  0  0
  6 46  1  0  0  0  0
  7  8  1  0  0  0  0
  7  9  1  0  0  0  0
  8 47  1  0  0  0  0
  9 10  1  0  0  0  0
  9 48  1  0  0  0  0
  9 49  1  0  0  0  0
 10 11  1  0  0  0  0
 10 12  1  0  0  0  0
 10 24  1  0  0  0  0
 12 13  2  0  0  0  0
 12 14  1  0  0  0  0
 14 19  1  0  0  0  0
 14 15  1  0  0  0  0
 15 16  1  0  0  0  0
 15 50  1  0  0  0  0
 15 51  1  0  0  0  0
 16 17  1  0  0  0  0
 16 52  1  0  0  0  0
 16 53  1  0  0  0  0
 17 18  1  0  0  0  0
 17 20  1  0  0  0  0
 18 19  1  0  0  0  0
 18 54  1  0  0  0  0
 18 55  1  0  0  0  0
 19 56  1  0  0  0  0
 19 57  1  0  0  0  0
 20 21  2  0  0  0  0
 20 22  2  0  0  0  0
 20 23  1  0  0  0  0
 23 58  1  0  0  0  0
 23 59  1  0  0  0  0
 23 60  1  0  0  0  0
 24 25  1  0  0  0  0
 24 61  1  0  0  0  0
 25 26  2  0  0  0  0
 25 27  2  0  0  0  0
 25 28  1  0  0  0  0
 28 33  2  0  0  0  0
 28 29  1  0  0  0  0
 29 30  2  0  0  0  0
 29 42  1  0  0  0  0
 30 31  1  0  0  0  0
 30 41  1  0  0  0  0
 31 38  1  0  0  0  0
 31 32  2  0  0  0  0
 32 33  1  0  0  0  0
 32 35  1  0  0  0  0
 33 34  1  0  0  0  0
 34 62  1  0  0  0  0
 34 63  1  0  0  0  0
 34 64  1  0  0  0  0
 35 36  1  0  0  0  0
 35 65  1  0  0  0  0
 35 66  1  0  0  0  0
 36 37  1  0  0  0  0
 36 67  1  0  0  0  0
 36 68  1  0  0  0  0
 37 38  1  0  0  0  0
 37 39  1  0  0  0  0
 37 40  1  0  0  0  0
 39 69  1  0  0  0  0
 39 70  1  0  0  0  0
 39 71  1  0  0  0  0
 40 72  1  0  0  0  0
 40 73  1  0  0  0  0
 40 74  1  0  0  0  0
 41 75  1  0  0  0  0
 41 76  1  0  0  0  0
 41 77  1  0  0  0  0
 42 78  1  0  0  0  0
 42 79  1  0  0  0  0
 42 80  1  0  0  0  0
 43 81  1  0  0  0  0
 43 82  1  0  0  0  0
 83 84  1  0  0  0  0
M  CHG  1  83   1
M  END
$$$$
ZINC03834176
  -OEChem-08230709403D

 82 85  0     1  0  0  0  0  0999 V2000
   -0.3060   -2.5848    3.7565 H   0  0  0  0  0  0  0  0  0  0  0  0
   -1.6930   -2.8086    2.2834 C   0  0  0  0  0  0  0  0  0  0  0  0
   -2.0696   -2.3260    0.9350 C   0  0  0  0  0  0  0  0  0  0  0  0
   -3.2026   -2.8346    0.3002 C   0  0  0  0  0  0  0  0  0  0  0  0
   -3.5483   -2.3810   -0.9561 C   0  0  0  0  0  0  0  0  0  0  0  0
   -2.7731   -1.4238   -1.5865 C   0  0  0  0  0  0  0  0  0  0  0  0
   -1.6486   -0.9153   -0.9620 C   0  0  0  0  0  0  0  0  0  0  0  0
   -1.2898   -1.3649    0.2925 C   0  0  0  0  0  0  0  0  0  0  0  0
   -0.8102    0.1273   -1.6554 C   0  0  0  0  0  0  0  0  0  0  0  0
   -1.3279    1.5211   -1.2943 C   0  0  1  0  0  0  0  0  0  0  0  0
   -1.3239    1.6406   -0.2109 H   0  0  0  0  0  0  0  0  0  0  0  0
   -0.4379    2.5648   -1.9183 C   0  0  0  0  0  0  0  0  0  0  0  0
   -0.8020    3.1565   -2.9125 O   0  0  0  0  0  0  0  0  0  0  0  0
    0.7625    2.8410   -1.3715 N   0  0  0  0  0  0  0  0  0  0  0  0
    1.1679    2.2205   -0.1028 C   0  0  0  0  0  0  0  0  0  0  0  0
    1.5822    3.3167    0.8771 C   0  0  0  0  0  0  0  0  0  0  0  0
    2.6591    4.1931    0.2333 C   0  0  0  0  0  0  0  0  0  0  0  0
    2.0945    4.8560   -1.0252 C   0  0  0  0  0  0  0  0  0  0  0  0
    1.6883    3.7731   -2.0296 C   0  0  0  0  0  0  0  0  0  0  0  0
    3.0979    5.2724    1.2250 C   0  0  0  0  0  0  0  0  0  0  0  0
   -2.6944    1.6800   -1.7981 N   0  0  0  0  0  0  0  0  0  0  0  0
   -3.9192    2.0797   -0.7576 S   0  0  0  0  0  0  0  0  0  0  0  0
   -5.0920    2.2233   -1.5470 O   0  0  0  0  0  0  0  0  0  0  0  0
   -3.8403    1.1699    0.3311 O   0  0  0  0  0  0  0  0  0  0  0  0
   -3.5509    3.6756   -0.1080 C   0  0  0  0  0  0  0  0  0  0  0  0
   -3.0466    3.8012    1.1735 C   0  0  0  0  0  0  0  0  0  0  0  0
   -2.7558    5.0511    1.6800 C   0  0  0  0  0  0  0  0  0  0  0  0
   -2.9785    6.1882    0.9095 C   0  0  0  0  0  0  0  0  0  0  0  0
   -3.4857    6.0595   -0.3714 C   0  0  0  0  0  0  0  0  0  0  0  0
   -3.7713    4.8018   -0.8764 C   0  0  0  0  0  0  0  0  0  0  0  0
   -4.3247    4.6615   -2.2711 C   0  0  0  0  0  0  0  0  0  0  0  0
   -3.7353    7.2647   -1.2424 C   0  0  0  0  0  0  0  0  0  0  0  0
   -3.7796    8.5262   -0.3765 C   0  0  0  0  0  0  0  0  0  0  0  0
   -2.5627    8.5123    0.5574 C   0  0  0  0  0  0  0  0  0  0  0  0
   -2.6902    7.4020    1.4468 O   0  0  0  0  0  0  0  0  0  0  0  0
   -1.2819    8.3678   -0.2670 C   0  0  0  0  0  0  0  0  0  0  0  0
   -2.5145    9.8138    1.3604 C   0  0  0  0  0  0  0  0  0  0  0  0
   -2.1997    5.1858    3.0742 C   0  0  0  0  0  0  0  0  0  0  0  0
   -2.8095    2.5731    2.0142 C   0  0  0  0  0  0  0  0  0  0  0  0
   -2.4627   -3.7621    2.9135 N   0  0  0  0  0  0  0  0  0  0  0  0
   -3.8081   -3.5822    0.7911 H   0  0  0  0  0  0  0  0  0  0  0  0
   -4.4254   -2.7741   -1.4485 H   0  0  0  0  0  0  0  0  0  0  0  0
   -3.0476   -1.0721   -2.5700 H   0  0  0  0  0  0  0  0  0  0  0  0
   -0.4091   -0.9703    0.7773 H   0  0  0  0  0  0  0  0  0  0  0  0
   -0.8723   -0.0150   -2.7343 H   0  0  0  0  0  0  0  0  0  0  0  0
    0.2274    0.0310   -1.3354 H   0  0  0  0  0  0  0  0  0  0  0  0
    0.3317    1.6580    0.3123 H   0  0  0  0  0  0  0  0  0  0  0  0
    2.0108    1.5515   -0.2763 H   0  0  0  0  0  0  0  0  0  0  0  0
    1.9776    2.8632    1.7861 H   0  0  0  0  0  0  0  0  0  0  0  0
    0.7143    3.9284    1.1230 H   0  0  0  0  0  0  0  0  0  0  0  0
    3.5167    3.5760   -0.0349 H   0  0  0  0  0  0  0  0  0  0  0  0
    2.8545    5.4983   -1.4701 H   0  0  0  0  0  0  0  0  0  0  0  0
    1.2218    5.4534   -0.7613 H   0  0  0  0  0  0  0  0  0  0  0  0
    2.5745    3.2332   -2.3633 H   0  0  0  0  0  0  0  0  0  0  0  0
    1.1954    4.2346   -2.8852 H   0  0  0  0  0  0  0  0  0  0  0  0
    2.2405    5.8898    1.4929 H   0  0  0  0  0  0  0  0  0  0  0  0
    3.5000    4.8003    2.1214 H   0  0  0  0  0  0  0  0  0  0  0  0
    3.8658    5.8959    0.7671 H   0  0  0  0  0  0  0  0  0  0  0  0
   -2.8817    1.5511   -2.7410 H   0  0  0  0  0  0  0  0  0  0  0  0
   -5.4136    4.6948   -2.2349 H   0  0  0  0  0  0  0  0  0  0  0  0
   -3.9567    5.4783   -2.8919 H   0  0  0  0  0  0  0  0  0  0  0  0
   -4.0042    3.7099   -2.6952 H   0  0  0  0  0  0  0  0  0  0  0  0
   -2.9330    7.3554   -1.9746 H   0  0  0  0  0  0  0  0  0  0  0  0
   -4.6869    7.1469   -1.7607 H   0  0  0  0  0  0  0  0  0  0  0  0
   -3.7441    9.4103   -1.0132 H   0  0  0  0  0  0  0  0  0  0  0  0
   -4.6961    8.5348    0.2134 H   0  0  0  0  0  0  0  0  0  0  0  0
   -1.1979    9.2068   -0.9578 H   0  0  0  0  0  0  0  0  0  0  0  0
   -0.4198    8.3583    0.3998 H   0  0  0  0  0  0  0  0  0  0  0  0
   -1.3158    7.4353   -0.8303 H   0  0  0  0  0  0  0  0  0  0  0  0
   -3.4241    9.9089    1.9534 H   0  0  0  0  0  0  0  0  0  0  0  0
   -1.6489    9.8004    2.0226 H   0  0  0  0  0  0  0  0  0  0  0  0
   -2.4361   10.6596    0.6771 H   0  0  0  0  0  0  0  0  0  0  0  0
   -3.0186    5.1843    3.7936 H   0  0  0  0  0  0  0  0  0  0  0  0
   -1.5324    4.3494    3.2816 H   0  0  0  0  0  0  0  0  0  0  0  0
   -1.6462    6.1212    3.1559 H   0  0  0  0  0  0  0  0  0  0  0  0
   -1.8903    2.0840    1.6917 H   0  0  0  0  0  0  0  0  0  0  0  0
   -2.7195    2.8616    3.0615 H   0  0  0  0  0  0  0  0  0  0  0  0
   -3.6472    1.8856    1.8973 H   0  0  0  0  0  0  0  0  0  0  0  0
   -3.2511   -4.1171    2.4738 H   0  0  0  0  0  0  0  0  0  0  0  0
   -2.2161   -4.0783    3.7967 H   0  0  0  0  0  0  0  0  0  0  0  0
   -0.6064   -2.2847    2.8290 N   0  3  0  0  0  0  0  0  0  0  0  0
   -0.0660   -1.5765    2.3185 H   0  0  0  0  0  0  0  0  0  0  0  0
  1 81  1  0  0  0  0
  2  3  1  0  0  0  0
  2 40  1  0  0  0  0
  2 81  2  0  0  0  0
  3  8  2  0  0  0  0
  3  4  1  0  0  0  0
  4  5  2  0  0  0  0
  4 41  1  0  0  0  0
  5  6  1  0  0  0  0
  5 42  1  0  0  0  0
  6  7  2  0  0  0  0
  6 43  1  0  0  0  0
  7  8  1  0  0  0  0
  7  9  1  0  0  0  0
  8 44  1  0  0  0  0
  9 10  1  0  0  0  0
  9 45  1  0  0  0  0
  9 46  1  0  0  0  0
 10 11  1  0  0  0  0
 10 12  1  0  0  0  0
 10 21  1  0  0  0  0
 12 13  2  0  0  0  0
 12 14  1  0  0  0  0
 14 19  1  0  0  0  0
 14 15  1  0  0  0  0
 15 16  1  0  0  0  0
 15 47  1  0  0  0  0
 15 48  1  0  0  0  0
 16 17  1  0  0  0  0
 16 49  1  0  0  0  0
 16 50  1  0  0  0  0
 17 18  1  0  0  0  0
 17 20  1  0  0  0  0
 17 51  1  0  0  0  0
 18 19  1  0  0  0  0
 18 52  1  0  0  0  0
 18 53  1  0  0  0  0
 19 54  1  0  0  0  0
 19 55  1  0  0  0  0
 20 56  1  0  0  0  0
 20 57  1  0  0  0  0
 20 58  1  0  0  0  0
 21 22  1  0  0  0  0
 21 59  1  0  0  0  0
 22 23  2  0  0  0  0
 22 24  2  0  0  0  0
 22 25  1  0  0  0  0
 25 30  2  0  0  0  0
 25 26  1  0  0  0  0
 26 27  2  0  0  0  0
 26 39  1  0  0  0  0
 27 28  1  0  0  0  0
 27 38  1  0  0  0  0
 28 35  1  0  0  0  0
 28 29  2  0  0  0  0
 29 30  1  0  0  0  0
 29 32  1  0  0  0  0
 30 31  1  0  0  0  0
 31 60  1  0  0  0  0
 31 61  1  0  0  0  0
 31 62  1  0  0  0  0
 32 33  1  0  0  0  0
 32 63  1  0  0  0  0
 32 64  1  0  0  0  0
 33 34  1  0  0  0  0
 33 65  1  0  0  0  0
 33 66  1  0  0  0  0
 34 35  1  0  0  0  0
 34 36  1  0  0  0  0
 34 37  1  0  0  0  0
 36 67  1  0  0  0  0
 36 68  1  0  0  0  0
 36 69  1  0  0  0  0
 37 70  1  0  0  0  0
 37 71  1  0  0  0  0
 37 72  1  0  0  0  0
 38 73  1  0  0  0  0
 38 74  1  0  0  0  0
 38 75  1  0  0  0  0
 39 76  1  0  0  0  0
 39 77  1  0  0  0  0
 39 78  1  0  0  0  0
 40 79  1  0  0  0  0
 40 80  1  0  0  0  0
 81 82  1  0  0  0  0
M  CHG  1  81   1
M  END
$$$$
ZINC03834177
  -OEChem-08230709403D

 64 67  0     1  0  0  0  0  0999 V2000
    2.7153   -1.8426   -0.6632 H   0  0  0  0  0  0  0  0  0  0  0  0
    0.9665   -0.8404   -0.3778 C   0  0  0  0  0  0  0  0  0  0  0  0
    0.4030    0.5140   -0.1753 C   0  0  0  0  0  0  0  0  0  0  0  0
   -0.9729    0.6844   -0.0230 C   0  0  0  0  0  0  0  0  0  0  0  0
   -1.4914    1.9482    0.1711 C   0  0  0  0  0  0  0  0  0  0  0  0
   -0.6506    3.0465    0.2030 C   0  0  0  0  0  0  0  0  0  0  0  0
    0.7142    2.8845    0.0468 C   0  0  0  0  0  0  0  0  0  0  0  0
    1.2453    1.6248   -0.1419 C   0  0  0  0  0  0  0  0  0  0  0  0
    1.6231    4.0860    0.0832 C   0  0  0  0  0  0  0  0  0  0  0  0
    1.7860    4.6454   -1.3315 C   0  0  1  0  0  0  0  0  0  0  0  0
    0.8142    4.9599   -1.7120 H   0  0  0  0  0  0  0  0  0  0  0  0
    2.7197    5.8278   -1.2998 C   0  0  0  0  0  0  0  0  0  0  0  0
    3.9041    5.6710   -1.5081 O   0  0  0  0  0  0  0  0  0  0  0  0
    2.2385    7.0597   -1.0399 N   0  0  0  0  0  0  0  0  0  0  0  0
    0.8262    7.2518   -0.6834 C   0  0  0  0  0  0  0  0  0  0  0  0
    0.7577    8.0317    0.6384 C   0  0  0  0  0  0  0  0  0  0  0  0
    1.5528    9.3318    0.4987 C   0  0  0  0  0  0  0  0  0  0  0  0
    3.0195    9.0061    0.2074 C   0  0  0  0  0  0  0  0  0  0  0  0
    3.1149    8.2366   -1.1138 C   0  0  0  0  0  0  0  0  0  0  0  0
    1.4581   10.1185    1.7806 C   0  0  0  0  0  0  0  0  0  0  0  0
    0.9789   11.2269    1.7749 O   0  0  0  0  0  0  0  0  0  0  0  0
    2.3404    3.6087   -2.2056 N   0  0  0  0  0  0  0  0  0  0  0  0
    1.3291    2.6685   -3.1198 S   0  0  0  0  0  0  0  0  0  0  0  0
    2.1577    1.7897   -3.8682 O   0  0  0  0  0  0  0  0  0  0  0  0
    0.3123    2.1975   -2.2460 O   0  0  0  0  0  0  0  0  0  0  0  0
    0.5406    3.7307   -4.2837 C   0  0  0  0  0  0  0  0  0  0  0  0
   -0.6682    4.3386   -3.9492 C   0  0  0  0  0  0  0  0  0  0  0  0
   -1.3005    5.1686   -4.8229 C   0  0  0  0  0  0  0  0  0  0  0  0
   -0.7346    5.4094   -6.0866 C   0  0  0  0  0  0  0  0  0  0  0  0
   -1.3616    6.2550   -7.0178 C   0  0  0  0  0  0  0  0  0  0  0  0
   -0.7841    6.4652   -8.2320 C   0  0  0  0  0  0  0  0  0  0  0  0
    0.4220    5.8530   -8.5685 C   0  0  0  0  0  0  0  0  0  0  0  0
    1.0574    5.0278   -7.6925 C   0  0  0  0  0  0  0  0  0  0  0  0
    0.4917    4.7870   -6.4288 C   0  0  0  0  0  0  0  0  0  0  0  0
    1.1182    3.9408   -5.4979 C   0  0  0  0  0  0  0  0  0  0  0  0
    0.1316   -1.9361   -0.4105 N   0  0  0  0  0  0  0  0  0  0  0  0
   -1.6308   -0.1717   -0.0524 H   0  0  0  0  0  0  0  0  0  0  0  0
   -2.5561    2.0808    0.2940 H   0  0  0  0  0  0  0  0  0  0  0  0
   -1.0615    4.0343    0.3507 H   0  0  0  0  0  0  0  0  0  0  0  0
    2.3111    1.4995   -0.2629 H   0  0  0  0  0  0  0  0  0  0  0  0
    1.1894    4.8502    0.7283 H   0  0  0  0  0  0  0  0  0  0  0  0
    2.5980    3.7925    0.4724 H   0  0  0  0  0  0  0  0  0  0  0  0
    0.3242    7.8154   -1.4698 H   0  0  0  0  0  0  0  0  0  0  0  0
    0.3446    6.2815   -0.5622 H   0  0  0  0  0  0  0  0  0  0  0  0
    1.1831    7.4296    1.4413 H   0  0  0  0  0  0  0  0  0  0  0  0
   -0.2820    8.2640    0.8689 H   0  0  0  0  0  0  0  0  0  0  0  0
    1.1767    9.8734   -0.2532 H   0  0  0  0  0  0  0  0  0  0  0  0
    3.4235    8.3948    1.0144 H   0  0  0  0  0  0  0  0  0  0  0  0
    3.5901    9.9317    0.1314 H   0  0  0  0  0  0  0  0  0  0  0  0
    4.1440    7.9163   -1.2766 H   0  0  0  0  0  0  0  0  0  0  0  0
    2.7958    8.8789   -1.9345 H   0  0  0  0  0  0  0  0  0  0  0  0
    1.8190    9.6909    2.7044 H   0  0  0  0  0  0  0  0  0  0  0  0
    3.2999    3.4730   -2.2490 H   0  0  0  0  0  0  0  0  0  0  0  0
   -1.1076    4.1514   -2.9805 H   0  0  0  0  0  0  0  0  0  0  0  0
   -2.2348    5.6356   -4.5486 H   0  0  0  0  0  0  0  0  0  0  0  0
   -2.2965    6.7361   -6.7707 H   0  0  0  0  0  0  0  0  0  0  0  0
   -1.2677    7.1157   -8.9457 H   0  0  0  0  0  0  0  0  0  0  0  0
    0.8587    6.0361   -9.5392 H   0  0  0  0  0  0  0  0  0  0  0  0
    1.9913    4.5601   -7.9673 H   0  0  0  0  0  0  0  0  0  0  0  0
    2.0529    3.4595   -5.7449 H   0  0  0  0  0  0  0  0  0  0  0  0
   -0.8251   -1.8202   -0.3008 H   0  0  0  0  0  0  0  0  0  0  0  0
    0.5008   -2.8232   -0.5431 H   0  0  0  0  0  0  0  0  0  0  0  0
    2.2796   -0.9313   -0.5211 N   0  3  0  0  0  0  0  0  0  0  0  0
    2.8593   -0.0844   -0.4893 H   0  0  0  0  0  0  0  0  0  0  0  0
  1 63  1  0  0  0  0
  2  3  1  0  0  0  0
  2 36  1  0  0  0  0
  2 63  2  0  0  0  0
  3  8  2  0  0  0  0
  3  4  1  0  0  0  0
  4  5  2  0  0  0  0
  4 37  1  0  0  0  0
  5  6  1  0  0  0  0
  5 38  1  0  0  0  0
  6  7  2  0  0  0  0
  6 39  1  0  0  0  0
  7  8  1  0  0  0  0
  7  9  1  0  0  0  0
  8 40  1  0  0  0  0
  9 10  1  0  0  0  0
  9 41  1  0  0  0  0
  9 42  1  0  0  0  0
 10 11  1  0  0  0  0
 10 12  1  0  0  0  0
 10 22  1  0  0  0  0
 12 13  2  0  0  0  0
 12 14  1  0  0  0  0
 14 19  1  0  0  0  0
 14 15  1  0  0  0  0
 15 16  1  0  0  0  0
 15 43  1  0  0  0  0
 15 44  1  0  0  0  0
 16 17  1  0  0  0  0
 16 45  1  0  0  0  0
 16 46  1  0  0  0  0
 17 18  1  0  0  0  0
 17 20  1  0  0  0  0
 17 47  1  0  0  0  0
 18 19  1  0  0  0  0
 18 48  1  0  0  0  0
 18 49  1  0  0  0  0
 19 50  1  0  0  0  0
 19 51  1  0  0  0  0
 20 21  2  0  0  0  0
 20 52  1  0  0  0  0
 22 23  1  0  0  0  0
 22 53  1  0  0  0  0
 23 24  2  0  0  0  0
 23 25  2  0  0  0  0
 23 26  1  0  0  0  0
 26 35  2  0  0  0  0
 26 27  1  0  0  0  0
 27 28  2  0  0  0  0
 27 54  1  0  0  0  0
 28 29  1  0  0  0  0
 28 55  1  0  0  0  0
 29 34  2  0  0  0  0
 29 30  1  0  0  0  0
 30 31  2  0  0  0  0
 30 56  1  0  0  0  0
 31 32  1  0  0  0  0
 31 57  1  0  0  0  0
 32 33  2  0  0  0  0
 32 58  1  0  0  0  0
 33 34  1  0  0  0  0
 33 59  1  0  0  0  0
 34 35  1  0  0  0  0
 35 60  1  0  0  0  0
 36 61  1  0  0  0  0
 36 62  1  0  0  0  0
 63 64  1  0  0  0  0
M  CHG  1  63   1
M  END
$$$$
ZINC03834178
  -OEChem-08230709403D

 64 67  0     1  0  0  0  0  0999 V2000
    1.3528    2.7958   -6.1256 H   0  0  0  0  0  0  0  0  0  0  0  0
    2.5143    1.3450   -5.2948 C   0  0  0  0  0  0  0  0  0  0  0  0
    2.8729    0.7176   -4.0022 C   0  0  0  0  0  0  0  0  0  0  0  0
    3.7961   -0.3271   -3.9632 C   0  0  0  0  0  0  0  0  0  0  0  0
    4.1265   -0.9074   -2.7558 C   0  0  0  0  0  0  0  0  0  0  0  0
    3.5482   -0.4510   -1.5846 C   0  0  0  0  0  0  0  0  0  0  0  0
    2.6279    0.5811   -1.6175 C   0  0  0  0  0  0  0  0  0  0  0  0
    2.2893    1.1694   -2.8191 C   0  0  0  0  0  0  0  0  0  0  0  0
    1.9981    1.0680   -0.3380 C   0  0  0  0  0  0  0  0  0  0  0  0
    0.7141    0.2805   -0.0695 C   0  0  1  0  0  0  0  0  0  0  0  0
    0.9378   -0.7862   -0.0584 H   0  0  0  0  0  0  0  0  0  0  0  0
    0.1444    0.6882    1.2648 C   0  0  0  0  0  0  0  0  0  0  0  0
   -0.6913    1.5650    1.3249 O   0  0  0  0  0  0  0  0  0  0  0  0
    0.5637    0.0785    2.3913 N   0  0  0  0  0  0  0  0  0  0  0  0
    1.6482   -0.9118    2.3472 C   0  0  0  0  0  0  0  0  0  0  0  0
    2.7299   -0.4969    3.3561 C   0  0  0  0  0  0  0  0  0  0  0  0
    2.0923   -0.3246    4.7367 C   0  0  0  0  0  0  0  0  0  0  0  0
    1.0379    0.7831    4.6788 C   0  0  1  0  0  0  0  0  0  0  0  0
    1.5040    1.7132    4.3540 H   0  0  0  0  0  0  0  0  0  0  0  0
   -0.0591    0.3868    3.6857 C   0  0  0  0  0  0  0  0  0  0  0  0
    0.4335    0.9740    6.0461 C   0  0  0  0  0  0  0  0  0  0  0  0
   -0.7523    0.8105    6.2106 O   0  0  0  0  0  0  0  0  0  0  0  0
   -0.2621    0.5638   -1.1244 N   0  0  0  0  0  0  0  0  0  0  0  0
   -1.2890   -0.6270   -1.6439 S   0  0  0  0  0  0  0  0  0  0  0  0
   -2.1191   -0.0422   -2.6379 O   0  0  0  0  0  0  0  0  0  0  0  0
   -0.4873   -1.7722   -1.8980 O   0  0  0  0  0  0  0  0  0  0  0  0
   -2.3384   -1.0373   -0.2892 C   0  0  0  0  0  0  0  0  0  0  0  0
   -1.9551   -2.0437    0.5956 C   0  0  0  0  0  0  0  0  0  0  0  0
   -2.7402   -2.3821    1.6546 C   0  0  0  0  0  0  0  0  0  0  0  0
   -3.9609   -1.7155    1.8561 C   0  0  0  0  0  0  0  0  0  0  0  0
   -4.8005   -2.0408    2.9351 C   0  0  0  0  0  0  0  0  0  0  0  0
   -5.9758   -1.3743    3.0986 C   0  0  0  0  0  0  0  0  0  0  0  0
   -6.3613   -0.3712    2.2110 C   0  0  0  0  0  0  0  0  0  0  0  0
   -5.5743   -0.0301    1.1544 C   0  0  0  0  0  0  0  0  0  0  0  0
   -4.3532   -0.6960    0.9533 C   0  0  0  0  0  0  0  0  0  0  0  0
   -3.5136   -0.3707   -0.1258 C   0  0  0  0  0  0  0  0  0  0  0  0
    3.0926    0.8965   -6.4622 N   0  0  0  0  0  0  0  0  0  0  0  0
    4.2516   -0.6810   -4.8762 H   0  0  0  0  0  0  0  0  0  0  0  0
    4.8415   -1.7162   -2.7243 H   0  0  0  0  0  0  0  0  0  0  0  0
    3.8133   -0.9053   -0.6413 H   0  0  0  0  0  0  0  0  0  0  0  0
    1.5736    1.9778   -2.8431 H   0  0  0  0  0  0  0  0  0  0  0  0
    1.7616    2.1281   -0.4298 H   0  0  0  0  0  0  0  0  0  0  0  0
    2.6938    0.9213    0.4883 H   0  0  0  0  0  0  0  0  0  0  0  0
    1.2568   -1.8944    2.6104 H   0  0  0  0  0  0  0  0  0  0  0  0
    2.0745   -0.9426    1.3445 H   0  0  0  0  0  0  0  0  0  0  0  0
    3.1805    0.4450    3.0435 H   0  0  0  0  0  0  0  0  0  0  0  0
    3.4975   -1.2693    3.4037 H   0  0  0  0  0  0  0  0  0  0  0  0
    2.8615   -0.0563    5.4610 H   0  0  0  0  0  0  0  0  0  0  0  0
    1.6204   -1.2599    5.0378 H   0  0  0  0  0  0  0  0  0  0  0  0
   -0.7599    1.2132    3.5664 H   0  0  0  0  0  0  0  0  0  0  0  0
   -0.5891   -0.4913    4.0546 H   0  0  0  0  0  0  0  0  0  0  0  0
   -0.3070    1.4490   -1.5187 H   0  0  0  0  0  0  0  0  0  0  0  0
   -1.0194   -2.5602    0.4406 H   0  0  0  0  0  0  0  0  0  0  0  0
   -2.4284   -3.1612    2.3343 H   0  0  0  0  0  0  0  0  0  0  0  0
   -4.5145   -2.8153    3.6313 H   0  0  0  0  0  0  0  0  0  0  0  0
   -6.6192   -1.6262    3.9286 H   0  0  0  0  0  0  0  0  0  0  0  0
   -7.2988    0.1428    2.3639 H   0  0  0  0  0  0  0  0  0  0  0  0
   -5.8861    0.7491    0.4746 H   0  0  0  0  0  0  0  0  0  0  0  0
   -3.7996    0.4038   -0.8220 H   0  0  0  0  0  0  0  0  0  0  0  0
    3.7347    0.1698   -6.4373 H   0  0  0  0  0  0  0  0  0  0  0  0
    2.8578    1.3073   -7.3088 H   0  0  0  0  0  0  0  0  0  0  0  0
    1.6321    2.3318   -5.2612 N   0  3  0  0  0  0  0  0  0  0  0  0
    1.2292    2.6300   -4.3651 H   0  0  0  0  0  0  0  0  0  0  0  0
    1.2125    1.3260    7.0810 O   0  5  0  0  0  0  0  0  0  0  0  0
  1 62  1  0  0  0  0
  2  3  1  0  0  0  0
  2 37  1  0  0  0  0
  2 62  2  0  0  0  0
  3  8  2  0  0  0  0
  3  4  1  0  0  0  0
  4  5  2  0  0  0  0
  4 38  1  0  0  0  0
  5  6  1  0  0  0  0
  5 39  1  0  0  0  0
  6  7  2  0  0  0  0
  6 40  1  0  0  0  0
  7  8  1  0  0  0  0
  7  9  1  0  0  0  0
  8 41  1  0  0  0  0
  9 10  1  0  0  0  0
  9 42  1  0  0  0  0
  9 43  1  0  0  0  0
 10 11  1  0  0  0  0
 10 12  1  0  0  0  0
 10 23  1  0  0  0  0
 12 13  2  0  0  0  0
 12 14  1  0  0  0  0
 14 20  1  0  0  0  0
 14 15  1  0  0  0  0
 15 16  1  0  0  0  0
 15 44  1  0  0  0  0
 15 45  1  0  0  0  0
 16 17  1  0  0  0  0
 16 46  1  0  0  0  0
 16 47  1  0  0  0  0
 17 18  1  0  0  0  0
 17 48  1  0  0  0  0
 17 49  1  0  0  0  0
 18 19  1  0  0  0  0
 18 20  1  0  0  0  0
 18 21  1  0  0  0  0
 20 50  1  0  0  0  0
 20 51  1  0  0  0  0
 21 22  2  0  0  0  0
 21 64  1  0  0  0  0
 23 24  1  0  0  0  0
 23 52  1  0  0  0  0
 24 25  2  0  0  0  0
 24 26  2  0  0  0  0
 24 27  1  0  0  0  0
 27 36  2  0  0  0  0
 27 28  1  0  0  0  0
 28 29  2  0  0  0  0
 28 53  1  0  0  0  0
 29 30  1  0  0  0  0
 29 54  1  0  0  0  0
 30 35  2  0  0  0  0
 30 31  1  0  0  0  0
 31 32  2  0  0  0  0
 31 55  1  0  0  0  0
 32 33  1  0  0  0  0
 32 56  1  0  0  0  0
 33 34  2  0  0  0  0
 33 57  1  0  0  0  0
 34 35  1  0  0  0  0
 34 58  1  0  0  0  0
 35 36  1  0  0  0  0
 36 59  1  0  0  0  0
 37 60  1  0  0  0  0
 37 61  1  0  0  0  0
 62 63  1  0  0  0  0
M  CHG  2  62   1  64  -1
M  END
$$$$
ZINC03834179
  -OEChem-08230709403D

 81 85  0     1  0  0  0  0  0999 V2000
    2.6084   -1.7259   -0.0275 H   0  0  0  0  0  0  0  0  0  0  0  0
    0.8445   -0.7092   -0.0205 C   0  0  0  0  0  0  0  0  0  0  0  0
    0.2701    0.6556   -0.0157 C   0  0  0  0  0  0  0  0  0  0  0  0
   -1.1134    0.8330   -0.0175 C   0  0  0  0  0  0  0  0  0  0  0  0
   -1.6426    2.1071   -0.0072 C   0  0  0  0  0  0  0  0  0  0  0  0
   -0.8040    3.2076   -0.0072 C   0  0  0  0  0  0  0  0  0  0  0  0
    0.5688    3.0381   -0.0111 C   0  0  0  0  0  0  0  0  0  0  0  0
    1.1101    1.7686   -0.0152 C   0  0  0  0  0  0  0  0  0  0  0  0
    1.4752    4.2420   -0.0107 C   0  0  0  0  0  0  0  0  0  0  0  0
    1.7786    4.6526   -1.4529 C   0  0  1  0  0  0  0  0  0  0  0  0
    0.8505    4.9221   -1.9570 H   0  0  0  0  0  0  0  0  0  0  0  0
    2.7119    5.8358   -1.4526 C   0  0  0  0  0  0  0  0  0  0  0  0
    3.8942    5.6756   -1.6704 O   0  0  0  0  0  0  0  0  0  0  0  0
    2.2328    7.0720   -1.2104 N   0  0  0  0  0  0  0  0  0  0  0  0
    0.8269    7.2691   -0.8318 C   0  0  0  0  0  0  0  0  0  0  0  0
    0.1957    8.2903   -1.7764 C   0  0  0  0  0  0  0  0  0  0  0  0
    1.0333    9.5710   -1.7730 C   0  0  0  0  0  0  0  0  0  0  0  0
    2.4468    9.2596   -2.2702 C   0  0  0  0  0  0  0  0  0  0  0  0
    3.1049    8.2488   -1.3257 C   0  0  0  0  0  0  0  0  0  0  0  0
    0.3951   10.5906   -2.6808 C   0  0  0  0  0  0  0  0  0  0  0  0
    1.0076   11.0236   -3.6280 O   0  0  0  0  0  0  0  0  0  0  0  0
   -0.8539   11.0177   -2.4370 O   0  0  0  0  0  0  0  0  0  0  0  0
   -1.4050   12.0004   -3.3529 C   0  0  0  0  0  0  0  0  0  0  0  0
   -1.0747   13.4074   -2.8505 C   0  0  0  0  0  0  0  0  0  0  0  0
   -1.6554   14.4430   -3.8156 C   0  0  0  0  0  0  0  0  0  0  0  0
   -3.1739   14.2726   -3.8931 C   0  0  0  0  0  0  0  0  0  0  0  0
   -3.5042   12.8656   -4.3956 C   0  0  0  0  0  0  0  0  0  0  0  0
   -2.9235   11.8301   -3.4305 C   0  0  0  0  0  0  0  0  0  0  0  0
    2.4093    3.5333   -2.1570 N   0  0  0  0  0  0  0  0  0  0  0  0
    1.4862    2.4995   -3.0632 S   0  0  0  0  0  0  0  0  0  0  0  0
    2.3786    1.5512   -3.6325 O   0  0  0  0  0  0  0  0  0  0  0  0
    0.3863    2.1171   -2.2488 O   0  0  0  0  0  0  0  0  0  0  0  0
    0.8214    3.4323   -4.4021 C   0  0  0  0  0  0  0  0  0  0  0  0
   -0.4106    4.0665   -4.2518 C   0  0  0  0  0  0  0  0  0  0  0  0
   -0.9496    4.7991   -5.2641 C   0  0  0  0  0  0  0  0  0  0  0  0
   -0.2619    4.9101   -6.4846 C   0  0  0  0  0  0  0  0  0  0  0  0
   -0.7899    5.6523   -7.5549 C   0  0  0  0  0  0  0  0  0  0  0  0
   -0.0955    5.7380   -8.7223 C   0  0  0  0  0  0  0  0  0  0  0  0
    1.1339    5.0993   -8.8744 C   0  0  0  0  0  0  0  0  0  0  0  0
    1.6759    4.3718   -7.8600 C   0  0  0  0  0  0  0  0  0  0  0  0
    0.9882    4.2608   -6.6394 C   0  0  0  0  0  0  0  0  0  0  0  0
    1.5159    3.5180   -5.5693 C   0  0  0  0  0  0  0  0  0  0  0  0
    0.0119   -1.8072   -0.0210 N   0  0  0  0  0  0  0  0  0  0  0  0
   -1.7690   -0.0252   -0.0223 H   0  0  0  0  0  0  0  0  0  0  0  0
   -2.7136    2.2458   -0.0038 H   0  0  0  0  0  0  0  0  0  0  0  0
   -1.2229    4.2030   -0.0037 H   0  0  0  0  0  0  0  0  0  0  0  0
    2.1821    1.6374   -0.0176 H   0  0  0  0  0  0  0  0  0  0  0  0
    0.9838    5.0665    0.5061 H   0  0  0  0  0  0  0  0  0  0  0  0
    2.4059    3.9959    0.5005 H   0  0  0  0  0  0  0  0  0  0  0  0
    0.2916    6.3226   -0.9087 H   0  0  0  0  0  0  0  0  0  0  0  0
    0.7725    7.6398    0.1917 H   0  0  0  0  0  0  0  0  0  0  0  0
   -0.8175    8.5172   -1.4445 H   0  0  0  0  0  0  0  0  0  0  0  0
    0.1647    7.8786   -2.7853 H   0  0  0  0  0  0  0  0  0  0  0  0
    1.0844    9.9687   -0.7593 H   0  0  0  0  0  0  0  0  0  0  0  0
    3.0360   10.1764   -2.2896 H   0  0  0  0  0  0  0  0  0  0  0  0
    2.3947    8.8387   -3.2743 H   0  0  0  0  0  0  0  0  0  0  0  0
    3.2402    8.7011   -0.3432 H   0  0  0  0  0  0  0  0  0  0  0  0
    4.0723    7.9486   -1.7284 H   0  0  0  0  0  0  0  0  0  0  0  0
   -0.9723   11.8573   -4.3429 H   0  0  0  0  0  0  0  0  0  0  0  0
   -1.5074   13.5506   -1.8604 H   0  0  0  0  0  0  0  0  0  0  0  0
    0.0071   13.5287   -2.7952 H   0  0  0  0  0  0  0  0  0  0  0  0
   -1.2226   14.2997   -4.8057 H   0  0  0  0  0  0  0  0  0  0  0  0
   -1.4200   15.4453   -3.4576 H   0  0  0  0  0  0  0  0  0  0  0  0
   -3.5876   15.0103   -4.5807 H   0  0  0  0  0  0  0  0  0  0  0  0
   -3.6067   14.4157   -2.9030 H   0  0  0  0  0  0  0  0  0  0  0  0
   -3.0714   12.7225   -5.3857 H   0  0  0  0  0  0  0  0  0  0  0  0
   -4.5861   12.7443   -4.4509 H   0  0  0  0  0  0  0  0  0  0  0  0
   -3.1588   10.8278   -3.7884 H   0  0  0  0  0  0  0  0  0  0  0  0
   -3.3563   11.9733   -2.4404 H   0  0  0  0  0  0  0  0  0  0  0  0
    3.3676    3.3977   -2.0921 H   0  0  0  0  0  0  0  0  0  0  0  0
   -0.9434    3.9788   -3.3165 H   0  0  0  0  0  0  0  0  0  0  0  0
   -1.9034    5.2882   -5.1320 H   0  0  0  0  0  0  0  0  0  0  0  0
   -1.7414    6.1525   -7.4514 H   0  0  0  0  0  0  0  0  0  0  0  0
   -0.5034    6.3092   -9.5431 H   0  0  0  0  0  0  0  0  0  0  0  0
    1.6642    5.1827   -9.8116 H   0  0  0  0  0  0  0  0  0  0  0  0
    2.6292    3.8820   -7.9925 H   0  0  0  0  0  0  0  0  0  0  0  0
    2.4673    3.0175   -5.6728 H   0  0  0  0  0  0  0  0  0  0  0  0
   -0.9504   -1.6860   -0.0181 H   0  0  0  0  0  0  0  0  0  0  0  0
    0.3882   -2.7011   -0.0241 H   0  0  0  0  0  0  0  0  0  0  0  0
    2.1650   -0.8071   -0.0242 N   0  3  0  0  0  0  0  0  0  0  0  0
    2.7427    0.0417   -0.0236 H   0  0  0  0  0  0  0  0  0  0  0  0
  1 80  1  0  0  0  0
  2  3  1  0  0  0  0
  2 43  1  0  0  0  0
  2 80  2  0  0  0  0
  3  8  2  0  0  0  0
  3  4  1  0  0  0  0
  4  5  2  0  0  0  0
  4 44  1  0  0  0  0
  5  6  1  0  0  0  0
  5 45  1  0  0  0  0
  6  7  2  0  0  0  0
  6 46  1  0  0  0  0
  7  8  1  0  0  0  0
  7  9  1  0  0  0  0
  8 47  1  0  0  0  0
  9 10  1  0  0  0  0
  9 48  1  0  0  0  0
  9 49  1  0  0  0  0
 10 11  1  0  0  0  0
 10 12  1  0  0  0  0
 10 29  1  0  0  0  0
 12 13  2  0  0  0  0
 12 14  1  0  0  0  0
 14 19  1  0  0  0  0
 14 15  1  0  0  0  0
 15 16  1  0  0  0  0
 15 50  1  0  0  0  0
 15 51  1  0  0  0  0
 16 17  1  0  0  0  0
 16 52  1  0  0  0  0
 16 53  1  0  0  0  0
 17 18  1  0  0  0  0
 17 20  1  0  0  0  0
 17 54  1  0  0  0  0
 18 19  1  0  0  0  0
 18 55  1  0  0  0  0
 18 56  1  0  0  0  0
 19 57  1  0  0  0  0
 19 58  1  0  0  0  0
 20 21  2  0  0  0  0
 20 22  1  0  0  0  0
 22 23  1  0  0  0  0
 23 28  1  0  0  0  0
 23 24  1  0  0  0  0
 23 59  1  0  0  0  0
 24 25  1  0  0  0  0
 24 60  1  0  0  0  0
 24 61  1  0  0  0  0
 25 26  1  0  0  0  0
 25 62  1  0  0  0  0
 25 63  1  0  0  0  0
 26 27  1  0  0  0  0
 26 64  1  0  0  0  0
 26 65  1  0  0  0  0
 27 28  1  0  0  0  0
 27 66  1  0  0  0  0
 27 67  1  0  0  0  0
 28 68  1  0  0  0  0
 28 69  1  0  0  0  0
 29 30  1  0  0  0  0
 29 70  1  0  0  0  0
 30 31  2  0  0  0  0
 30 32  2  0  0  0  0
 30 33  1  0  0  0  0
 33 42  2  0  0  0  0
 33 34  1  0  0  0  0
 34 35  2  0  0  0  0
 34 71  1  0  0  0  0
 35 36  1  0  0  0  0
 35 72  1  0  0  0  0
 36 41  2  0  0  0  0
 36 37  1  0  0  0  0
 37 38  2  0  0  0  0
 37 73  1  0  0  0  0
 38 39  1  0  0  0  0
 38 74  1  0  0  0  0
 39 40  2  0  0  0  0
 39 75  1  0  0  0  0
 40 41  1  0  0  0  0
 40 76  1  0  0  0  0
 41 42  1  0  0  0  0
 42 77  1  0  0  0  0
 43 78  1  0  0  0  0
 43 79  1  0  0  0  0
 80 81  1  0  0  0  0
M  CHG  1  80   1
M  END
$$$$
ZINC03834180
  -OEChem-08230709403D

 78 82  0     1  0  0  0  0  0999 V2000
    2.7153   -1.8426   -0.6632 H   0  0  0  0  0  0  0  0  0  0  0  0
    0.9665   -0.8404   -0.3778 C   0  0  0  0  0  0  0  0  0  0  0  0
    0.4030    0.5140   -0.1753 C   0  0  0  0  0  0  0  0  0  0  0  0
   -0.9729    0.6844   -0.0230 C   0  0  0  0  0  0  0  0  0  0  0  0
   -1.4914    1.9482    0.1711 C   0  0  0  0  0  0  0  0  0  0  0  0
   -0.6506    3.0465    0.2030 C   0  0  0  0  0  0  0  0  0  0  0  0
    0.7142    2.8845    0.0468 C   0  0  0  0  0  0  0  0  0  0  0  0
    1.2453    1.6248   -0.1419 C   0  0  0  0  0  0  0  0  0  0  0  0
    1.6231    4.0860    0.0832 C   0  0  0  0  0  0  0  0  0  0  0  0
    1.7860    4.6454   -1.3315 C   0  0  1  0  0  0  0  0  0  0  0  0
    0.8142    4.9599   -1.7120 H   0  0  0  0  0  0  0  0  0  0  0  0
    2.7197    5.8278   -1.2998 C   0  0  0  0  0  0  0  0  0  0  0  0
    3.9041    5.6710   -1.5081 O   0  0  0  0  0  0  0  0  0  0  0  0
    2.2385    7.0597   -1.0399 N   0  0  0  0  0  0  0  0  0  0  0  0
    0.8262    7.2518   -0.6834 C   0  0  0  0  0  0  0  0  0  0  0  0
    0.7577    8.0317    0.6384 C   0  0  0  0  0  0  0  0  0  0  0  0
    1.5528    9.3318    0.4987 C   0  0  0  0  0  0  0  0  0  0  0  0
    3.0195    9.0061    0.2074 C   0  0  0  0  0  0  0  0  0  0  0  0
    3.1149    8.2366   -1.1138 C   0  0  0  0  0  0  0  0  0  0  0  0
    1.9889    9.3261    2.8799 C   0  0  0  0  0  0  0  0  0  0  0  0
    2.0118   10.2049    4.1327 C   0  0  0  0  0  0  0  0  0  0  0  0
    0.5908   10.6864    4.4384 C   0  0  0  0  0  0  0  0  0  0  0  0
    0.0459   11.4462    3.2258 C   0  0  0  0  0  0  0  0  0  0  0  0
    0.0800   10.5315    1.9993 C   0  0  0  0  0  0  0  0  0  0  0  0
    2.3404    3.6087   -2.2056 N   0  0  0  0  0  0  0  0  0  0  0  0
    1.3291    2.6685   -3.1198 S   0  0  0  0  0  0  0  0  0  0  0  0
    2.1577    1.7897   -3.8682 O   0  0  0  0  0  0  0  0  0  0  0  0
    0.3123    2.1975   -2.2460 O   0  0  0  0  0  0  0  0  0  0  0  0
    0.5406    3.7307   -4.2837 C   0  0  0  0  0  0  0  0  0  0  0  0
   -0.6682    4.3386   -3.9492 C   0  0  0  0  0  0  0  0  0  0  0  0
   -1.3005    5.1686   -4.8229 C   0  0  0  0  0  0  0  0  0  0  0  0
   -0.7346    5.4094   -6.0866 C   0  0  0  0  0  0  0  0  0  0  0  0
   -1.3616    6.2550   -7.0178 C   0  0  0  0  0  0  0  0  0  0  0  0
   -0.7841    6.4652   -8.2320 C   0  0  0  0  0  0  0  0  0  0  0  0
    0.4220    5.8530   -8.5685 C   0  0  0  0  0  0  0  0  0  0  0  0
    1.0574    5.0278   -7.6925 C   0  0  0  0  0  0  0  0  0  0  0  0
    0.4917    4.7870   -6.4288 C   0  0  0  0  0  0  0  0  0  0  0  0
    1.1182    3.9408   -5.4979 C   0  0  0  0  0  0  0  0  0  0  0  0
    0.1316   -1.9361   -0.4105 N   0  0  0  0  0  0  0  0  0  0  0  0
   -1.6308   -0.1717   -0.0524 H   0  0  0  0  0  0  0  0  0  0  0  0
   -2.5561    2.0808    0.2940 H   0  0  0  0  0  0  0  0  0  0  0  0
   -1.0615    4.0343    0.3507 H   0  0  0  0  0  0  0  0  0  0  0  0
    2.3111    1.4995   -0.2629 H   0  0  0  0  0  0  0  0  0  0  0  0
    1.1894    4.8502    0.7283 H   0  0  0  0  0  0  0  0  0  0  0  0
    2.5980    3.7925    0.4724 H   0  0  0  0  0  0  0  0  0  0  0  0
    0.3242    7.8154   -1.4698 H   0  0  0  0  0  0  0  0  0  0  0  0
    0.3446    6.2815   -0.5622 H   0  0  0  0  0  0  0  0  0  0  0  0
    1.1831    7.4296    1.4413 H   0  0  0  0  0  0  0  0  0  0  0  0
   -0.2820    8.2640    0.8689 H   0  0  0  0  0  0  0  0  0  0  0  0
    1.1423    9.9222   -0.3206 H   0  0  0  0  0  0  0  0  0  0  0  0
    3.4235    8.3948    1.0144 H   0  0  0  0  0  0  0  0  0  0  0  0
    3.5897    9.9319    0.1312 H   0  0  0  0  0  0  0  0  0  0  0  0
    4.1440    7.9163   -1.2766 H   0  0  0  0  0  0  0  0  0  0  0  0
    2.7958    8.8789   -1.9345 H   0  0  0  0  0  0  0  0  0  0  0  0
    1.3527    8.4588    3.0562 H   0  0  0  0  0  0  0  0  0  0  0  0
    3.0013    8.9933    2.6512 H   0  0  0  0  0  0  0  0  0  0  0  0
    2.6588   11.0653    3.9619 H   0  0  0  0  0  0  0  0  0  0  0  0
    2.3896    9.6271    4.9762 H   0  0  0  0  0  0  0  0  0  0  0  0
    0.6088   11.3477    5.3046 H   0  0  0  0  0  0  0  0  0  0  0  0
   -0.0477    9.8281    4.6474 H   0  0  0  0  0  0  0  0  0  0  0  0
    0.6619   12.3261    3.0408 H   0  0  0  0  0  0  0  0  0  0  0  0
   -0.9811   11.7553    3.4207 H   0  0  0  0  0  0  0  0  0  0  0  0
   -0.2941   11.0741    1.1312 H   0  0  0  0  0  0  0  0  0  0  0  0
   -0.5473    9.6586    2.1799 H   0  0  0  0  0  0  0  0  0  0  0  0
    3.2999    3.4730   -2.2490 H   0  0  0  0  0  0  0  0  0  0  0  0
   -1.1076    4.1514   -2.9805 H   0  0  0  0  0  0  0  0  0  0  0  0
   -2.2348    5.6356   -4.5486 H   0  0  0  0  0  0  0  0  0  0  0  0
   -2.2965    6.7361   -6.7707 H   0  0  0  0  0  0  0  0  0  0  0  0
   -1.2677    7.1157   -8.9457 H   0  0  0  0  0  0  0  0  0  0  0  0
    0.8587    6.0361   -9.5392 H   0  0  0  0  0  0  0  0  0  0  0  0
    1.9913    4.5601   -7.9673 H   0  0  0  0  0  0  0  0  0  0  0  0
    2.0529    3.4595   -5.7449 H   0  0  0  0  0  0  0  0  0  0  0  0
   -0.8251   -1.8202   -0.3008 H   0  0  0  0  0  0  0  0  0  0  0  0
    0.5008   -2.8232   -0.5431 H   0  0  0  0  0  0  0  0  0  0  0  0
    2.2796   -0.9313   -0.5211 N   0  3  0  0  0  0  0  0  0  0  0  0
    2.8593   -0.0844   -0.4893 H   0  0  0  0  0  0  0  0  0  0  0  0
    1.4778   10.1228    1.7443 N   0  3  0  0  0  0  0  0  0  0  0  0
    2.0571   10.9642    1.6404 H   0  0  0  0  0  0  0  0  0  0  0  0
  1 75  1  0  0  0  0
  2  3  1  0  0  0  0
  2 39  1  0  0  0  0
  2 75  2  0  0  0  0
  3  8  2  0  0  0  0
  3  4  1  0  0  0  0
  4  5  2  0  0  0  0
  4 40  1  0  0  0  0
  5  6  1  0  0  0  0
  5 41  1  0  0  0  0
  6  7  2  0  0  0  0
  6 42  1  0  0  0  0
  7  8  1  0  0  0  0
  7  9  1  0  0  0  0
  8 43  1  0  0  0  0
  9 10  1  0  0  0  0
  9 44  1  0  0  0  0
  9 45  1  0  0  0  0
 10 11  1  0  0  0  0
 10 12  1  0  0  0  0
 10 25  1  0  0  0  0
 12 13  2  0  0  0  0
 12 14  1  0  0  0  0
 14 19  1  0  0  0  0
 14 15  1  0  0  0  0
 15 16  1  0  0  0  0
 15 46  1  0  0  0  0
 15 47  1  0  0  0  0
 16 17  1  0  0  0  0
 16 48  1  0  0  0  0
 16 49  1  0  0  0  0
 17 18  1  0  0  0  0
 17 50  1  0  0  0  0
 17 77  1  0  0  0  0
 18 19  1  0  0  0  0
 18 51  1  0  0  0  0
 18 52  1  0  0  0  0
 19 53  1  0  0  0  0
 19 54  1  0  0  0  0
 20 21  1  0  0  0  0
 20 55  1  0  0  0  0
 20 56  1  0  0  0  0
 20 77  1  0  0  0  0
 21 22  1  0  0  0  0
 21 57  1  0  0  0  0
 21 58  1  0  0  0  0
 22 23  1  0  0  0  0
 22 59  1  0  0  0  0
 22 60  1  0  0  0  0
 23 24  1  0  0  0  0
 23 61  1  0  0  0  0
 23 62  1  0  0  0  0
 24 63  1  0  0  0  0
 24 64  1  0  0  0  0
 24 77  1  0  0  0  0
 25 26  1  0  0  0  0
 25 65  1  0  0  0  0
 26 27  2  0  0  0  0
 26 28  2  0  0  0  0
 26 29  1  0  0  0  0
 29 38  2  0  0  0  0
 29 30  1  0  0  0  0
 30 31  2  0  0  0  0
 30 66  1  0  0  0  0
 31 32  1  0  0  0  0
 31 67  1  0  0  0  0
 32 37  2  0  0  0  0
 32 33  1  0  0  0  0
 33 34  2  0  0  0  0
 33 68  1  0  0  0  0
 34 35  1  0  0  0  0
 34 69  1  0  0  0  0
 35 36  2  0  0  0  0
 35 70  1  0  0  0  0
 36 37  1  0  0  0  0
 36 71  1  0  0  0  0
 37 38  1  0  0  0  0
 38 72  1  0  0  0  0
 39 73  1  0  0  0  0
 39 74  1  0  0  0  0
 75 76  1  0  0  0  0
 77 78  1  0  0  0  0
M  CHG  2  75   1  77   1
M  END
$$$$
ZINC03834181
  -OEChem-08230709403D

 73 74  0     1  0  0  0  0  0999 V2000
   -6.7760   -0.5241   -0.7952 H   0  0  0  0  0  0  0  0  0  0  0  0
   -5.1740   -0.3798    0.4526 C   0  0  0  0  0  0  0  0  0  0  0  0
   -3.7086   -0.1671    0.4703 C   0  0  0  0  0  0  0  0  0  0  0  0
   -3.0176   -0.1537    1.6819 C   0  0  0  0  0  0  0  0  0  0  0  0
   -1.6524    0.0449    1.6921 C   0  0  0  0  0  0  0  0  0  0  0  0
   -0.9687    0.2305    0.5036 C   0  0  0  0  0  0  0  0  0  0  0  0
   -1.6482    0.2176   -0.7011 C   0  0  0  0  0  0  0  0  0  0  0  0
   -3.0139    0.0199   -0.7241 C   0  0  0  0  0  0  0  0  0  0  0  0
   -0.8957    0.4195   -1.9910 C   0  0  0  0  0  0  0  0  0  0  0  0
   -0.4337   -0.9361   -2.5294 C   0  0  1  0  0  0  0  0  0  0  0  0
   -1.2925   -1.6003   -2.6266 H   0  0  0  0  0  0  0  0  0  0  0  0
    0.2107   -0.7475   -3.8786 C   0  0  0  0  0  0  0  0  0  0  0  0
    1.3665   -1.0727   -4.0494 O   0  0  0  0  0  0  0  0  0  0  0  0
   -0.4975   -0.2175   -4.8955 N   0  0  0  0  0  0  0  0  0  0  0  0
    0.1289   -0.0342   -6.2070 C   0  0  0  0  0  0  0  0  0  0  0  0
    0.5365   -1.5246   -1.6028 N   0  0  0  0  0  0  0  0  0  0  0  0
    0.5738   -3.1643   -1.3743 S   0  0  0  0  0  0  0  0  0  0  0  0
    1.6242   -3.4221   -0.4526 O   0  0  0  0  0  0  0  0  0  0  0  0
   -0.7665   -3.5716   -1.1354 O   0  0  0  0  0  0  0  0  0  0  0  0
    1.0563   -3.8928   -2.9044 C   0  0  0  0  0  0  0  0  0  0  0  0
    2.3922   -3.9404   -3.2563 C   0  0  0  0  0  0  0  0  0  0  0  0
    2.7711   -4.5159   -4.4547 C   0  0  0  0  0  0  0  0  0  0  0  0
    1.8133   -5.0351   -5.3056 C   0  0  0  0  0  0  0  0  0  0  0  0
    0.4769   -4.9830   -4.9557 C   0  0  0  0  0  0  0  0  0  0  0  0
    0.0984   -4.4115   -3.7554 C   0  0  0  0  0  0  0  0  0  0  0  0
   -1.3585   -4.3544   -3.3743 C   0  0  0  0  0  0  0  0  0  0  0  0
   -2.2130   -4.2519   -4.6393 C   0  0  0  0  0  0  0  0  0  0  0  0
   -1.7348   -5.6229   -2.6061 C   0  0  0  0  0  0  0  0  0  0  0  0
    2.2260   -5.6582   -6.6141 C   0  0  0  0  0  0  0  0  0  0  0  0
    2.9529   -4.6172   -7.4679 C   0  0  0  0  0  0  0  0  0  0  0  0
    3.1605   -6.8392   -6.3445 C   0  0  0  0  0  0  0  0  0  0  0  0
    3.4360   -3.3694   -2.3314 C   0  0  0  0  0  0  0  0  0  0  0  0
    4.2877   -4.5049   -1.7604 C   0  0  0  0  0  0  0  0  0  0  0  0
    4.3310   -2.4014   -3.1080 C   0  0  0  0  0  0  0  0  0  0  0  0
   -5.8578   -0.5644    1.6344 N   0  0  0  0  0  0  0  0  0  0  0  0
   -3.5503   -0.2987    2.6102 H   0  0  0  0  0  0  0  0  0  0  0  0
   -1.1157    0.0511    2.6292 H   0  0  0  0  0  0  0  0  0  0  0  0
    0.1001    0.3856    0.5166 H   0  0  0  0  0  0  0  0  0  0  0  0
   -3.5434    0.0105   -1.6653 H   0  0  0  0  0  0  0  0  0  0  0  0
   -1.5485    0.8972   -2.7215 H   0  0  0  0  0  0  0  0  0  0  0  0
   -0.0277    1.0536   -1.8100 H   0  0  0  0  0  0  0  0  0  0  0  0
   -1.4219    0.0426   -4.7589 H   0  0  0  0  0  0  0  0  0  0  0  0
    0.4581   -1.0000   -6.5907 H   0  0  0  0  0  0  0  0  0  0  0  0
   -0.5929    0.4037   -6.8965 H   0  0  0  0  0  0  0  0  0  0  0  0
    0.9877    0.6300   -6.1099 H   0  0  0  0  0  0  0  0  0  0  0  0
    1.1570   -0.9538   -1.1232 H   0  0  0  0  0  0  0  0  0  0  0  0
    3.8153   -4.5569   -4.7279 H   0  0  0  0  0  0  0  0  0  0  0  0
   -0.2714   -5.3887   -5.6205 H   0  0  0  0  0  0  0  0  0  0  0  0
   -1.5354   -3.4824   -2.7447 H   0  0  0  0  0  0  0  0  0  0  0  0
   -2.0360   -5.1239   -5.2690 H   0  0  0  0  0  0  0  0  0  0  0  0
   -3.2667   -4.2105   -4.3637 H   0  0  0  0  0  0  0  0  0  0  0  0
   -1.9449   -3.3481   -5.1866 H   0  0  0  0  0  0  0  0  0  0  0  0
   -1.1262   -5.6959   -1.7049 H   0  0  0  0  0  0  0  0  0  0  0  0
   -2.7886   -5.5816   -2.3305 H   0  0  0  0  0  0  0  0  0  0  0  0
   -1.5579   -6.4949   -3.2358 H   0  0  0  0  0  0  0  0  0  0  0  0
    1.3407   -6.0090   -7.1447 H   0  0  0  0  0  0  0  0  0  0  0  0
    3.8381   -4.2662   -6.9374 H   0  0  0  0  0  0  0  0  0  0  0  0
    3.2514   -5.0679   -8.4144 H   0  0  0  0  0  0  0  0  0  0  0  0
    2.2871   -3.7758   -7.6601 H   0  0  0  0  0  0  0  0  0  0  0  0
    2.6426   -7.5808   -5.7363 H   0  0  0  0  0  0  0  0  0  0  0  0
    3.4589   -7.2899   -7.2910 H   0  0  0  0  0  0  0  0  0  0  0  0
    4.0456   -6.4882   -5.8139 H   0  0  0  0  0  0  0  0  0  0  0  0
    2.9465   -2.8369   -1.5159 H   0  0  0  0  0  0  0  0  0  0  0  0
    4.7771   -5.0374   -2.5759 H   0  0  0  0  0  0  0  0  0  0  0  0
    5.0426   -4.0919   -1.0914 H   0  0  0  0  0  0  0  0  0  0  0  0
    3.6501   -5.1945   -1.2072 H   0  0  0  0  0  0  0  0  0  0  0  0
    4.8204   -2.9340   -3.9234 H   0  0  0  0  0  0  0  0  0  0  0  0
    3.7242   -1.5924   -3.5147 H   0  0  0  0  0  0  0  0  0  0  0  0
    5.0858   -1.9884   -2.4389 H   0  0  0  0  0  0  0  0  0  0  0  0
   -5.3792   -0.5551    2.4781 H   0  0  0  0  0  0  0  0  0  0  0  0
   -6.8176   -0.7036    1.6227 H   0  0  0  0  0  0  0  0  0  0  0  0
   -5.7680   -0.3816   -0.7308 N   0  3  0  0  0  0  0  0  0  0  0  0
   -5.2141   -0.2395   -1.5835 H   0  0  0  0  0  0  0  0  0  0  0  0
  1 72  1  0  0  0  0
  2  3  1  0  0  0  0
  2 35  1  0  0  0  0
  2 72  2  0  0  0  0
  3  8  2  0  0  0  0
  3  4  1  0  0  0  0
  4  5  2  0  0  0  0
  4 36  1  0  0  0  0
  5  6  1  0  0  0  0
  5 37  1  0  0  0  0
  6  7  2  0  0  0  0
  6 38  1  0  0  0  0
  7  8  1  0  0  0  0
  7  9  1  0  0  0  0
  8 39  1  0  0  0  0
  9 10  1  0  0  0  0
  9 40  1  0  0  0  0
  9 41  1  0  0  0  0
 10 11  1  0  0  0  0
 10 12  1  0  0  0  0
 10 16  1  0  0  0  0
 12 13  2  0  0  0  0
 12 14  1  0  0  0  0
 14 15  1  0  0  0  0
 14 42  1  0  0  0  0
 15 43  1  0  0  0  0
 15 44  1  0  0  0  0
 15 45  1  0  0  0  0
 16 17  1  0  0  0  0
 16 46  1  0  0  0  0
 17 18  2  0  0  0  0
 17 19  2  0  0  0  0
 17 20  1  0  0  0  0
 20 25  2  0  0  0  0
 20 21  1  0  0  0  0
 21 22  2  0  0  0  0
 21 32  1  0  0  0  0
 22 23  1  0  0  0  0
 22 47  1  0  0  0  0
 23 24  2  0  0  0  0
 23 29  1  0  0  0  0
 24 25  1  0  0  0  0
 24 48  1  0  0  0  0
 25 26  1  0  0  0  0
 26 27  1  0  0  0  0
 26 28  1  0  0  0  0
 26 49  1  0  0  0  0
 27 50  1  0  0  0  0
 27 51  1  0  0  0  0
 27 52  1  0  0  0  0
 28 53  1  0  0  0  0
 28 54  1  0  0  0  0
 28 55  1  0  0  0  0
 29 30  1  0  0  0  0
 29 31  1  0  0  0  0
 29 56  1  0  0  0  0
 30 57  1  0  0  0  0
 30 58  1  0  0  0  0
 30 59  1  0  0  0  0
 31 60  1  0  0  0  0
 31 61  1  0  0  0  0
 31 62  1  0  0  0  0
 32 33  1  0  0  0  0
 32 34  1  0  0  0  0
 32 63  1  0  0  0  0
 33 64  1  0  0  0  0
 33 65  1  0  0  0  0
 33 66  1  0  0  0  0
 34 67  1  0  0  0  0
 34 68  1  0  0  0  0
 34 69  1  0  0  0  0
 35 70  1  0  0  0  0
 35 71  1  0  0  0  0
 72 73  1  0  0  0  0
M  CHG  1  72   1
M  END
$$$$
ZINC03834185
  -OEChem-08230709403D

 21 21  0     0  0  0  0  0  0999 V2000
   -0.0126    1.0758    0.0080 C   0  0  0  0  0  0  0  0  0  0  0  0
   -1.2190    1.7506    0.0173 C   0  0  0  0  0  0  0  0  0  0  0  0
   -1.2377    3.1328    0.0299 C   0  0  0  0  0  0  0  0  0  0  0  0
   -0.0501    3.8402    0.0228 C   0  0  0  0  0  0  0  0  0  0  0  0
    1.1563    3.1654    0.0076 C   0  0  0  0  0  0  0  0  0  0  0  0
    1.1750    1.7832    0.0004 C   0  0  0  0  0  0  0  0  0  0  0  0
   -0.0705    5.3471    0.0311 C   0  0  0  0  0  0  0  0  0  0  0  0
    0.0021   -0.0041    0.0020 H   0  0  0  0  0  0  0  0  0  0  0  0
   -2.1469    1.1980    0.0187 H   0  0  0  0  0  0  0  0  0  0  0  0
   -2.1802    3.6600    0.0414 H   0  0  0  0  0  0  0  0  0  0  0  0
    2.0842    3.7181    0.0017 H   0  0  0  0  0  0  0  0  0  0  0  0
    2.1175    1.2560   -0.0115 H   0  0  0  0  0  0  0  0  0  0  0  0
   -0.0853    5.7159   -0.9945 H   0  0  0  0  0  0  0  0  0  0  0  0
   -1.3122    5.4353    1.6709 H   0  0  0  0  0  0  0  0  0  0  0  0
   -1.3066    6.8247    0.7569 H   0  0  0  0  0  0  0  0  0  0  0  0
    1.1711    6.8567    0.6775 H   0  0  0  0  0  0  0  0  0  0  0  0
    1.1656    5.5209    1.6683 H   0  0  0  0  0  0  0  0  0  0  0  0
   -1.2877    5.8068    0.7227 N   0  3  0  0  0  0  0  0  0  0  0  0
   -2.1130    5.4735    0.2109 H   0  0  0  0  0  0  0  0  0  0  0  0
    1.1467    5.8386    0.7006 N   0  3  0  0  0  0  0  0  0  0  0  0
    1.9721    5.4725    0.2117 H   0  0  0  0  0  0  0  0  0  0  0  0
  1  6  2  0  0  0  0
  1  2  1  0  0  0  0
  1  8  1  0  0  0  0
  2  3  2  0  0  0  0
  2  9  1  0  0  0  0
  3  4  1  0  0  0  0
  3 10  1  0  0  0  0
  4  5  2  0  0  0  0
  4  7  1  0  0  0  0
  5  6  1  0  0  0  0
  5 11  1  0  0  0  0
  6 12  1  0  0  0  0
  7 13  1  0  0  0  0
  7 18  1  0  0  0  0
  7 20  1  0  0  0  0
 14 18  1  0  0  0  0
 15 18  1  0  0  0  0
 16 20  1  0  0  0  0
 17 20  1  0  0  0  0
 18 19  1  0  0  0  0
 20 21  1  0  0  0  0
M  CHG  2  18   1  20   1
M  END
$$$$
ZINC03834186
  -OEChem-08230709403D

 62 64  0     1  0  0  0  0  0999 V2000
    1.7981   -3.7688    6.3788 C   0  0  0  0  0  0  0  0  0  0  0  0
    2.8910   -3.2315    5.4912 C   0  0  0  0  0  0  0  0  0  0  0  0
    3.5511   -4.0766    4.6188 C   0  0  0  0  0  0  0  0  0  0  0  0
    4.5536   -3.5837    3.8046 C   0  0  0  0  0  0  0  0  0  0  0  0
    4.8955   -2.2455    3.8622 C   0  0  0  0  0  0  0  0  0  0  0  0
    4.2387   -1.4014    4.7379 C   0  0  0  0  0  0  0  0  0  0  0  0
    3.2332   -1.8934    5.5490 C   0  0  0  0  0  0  0  0  0  0  0  0
    6.1733   -1.6173    2.8243 S   0  0  0  0  0  0  0  0  0  0  0  0
    7.0057   -2.7200    2.4922 O   0  0  0  0  0  0  0  0  0  0  0  0
    6.6741   -0.4487    3.4589 O   0  0  0  0  0  0  0  0  0  0  0  0
    5.4597   -1.1215    1.4146 N   0  0  0  0  0  0  0  0  0  0  0  0
    4.5124   -0.0041    1.4266 C   0  0  1  0  0  0  0  0  0  0  0  0
    4.7201    0.6391    2.2818 H   0  0  0  0  0  0  0  0  0  0  0  0
    4.6585    0.8024    0.1346 C   0  0  0  0  0  0  0  0  0  0  0  0
    6.0216    1.4438    0.0943 C   0  0  0  0  0  0  0  0  0  0  0  0
    6.2070    2.7072    0.6245 C   0  0  0  0  0  0  0  0  0  0  0  0
    7.4582    3.2935    0.5919 C   0  0  0  0  0  0  0  0  0  0  0  0
    8.5220    2.6210    0.0196 C   0  0  0  0  0  0  0  0  0  0  0  0
    8.3355    1.3603   -0.5152 C   0  0  0  0  0  0  0  0  0  0  0  0
    7.0851    0.7716   -0.4778 C   0  0  0  0  0  0  0  0  0  0  0  0
    9.4950    0.6275   -1.1394 C   0  0  0  0  0  0  0  0  0  0  0  0
    3.1069   -0.5380    1.5292 C   0  0  0  0  0  0  0  0  0  0  0  0
    2.9022   -1.7294    1.4312 O   0  0  0  0  0  0  0  0  0  0  0  0
    2.0774    0.3083    1.7300 N   0  0  0  0  0  0  0  0  0  0  0  0
    2.3159    1.7459    1.9180 C   0  0  0  0  0  0  0  0  0  0  0  0
    1.6376    2.1925    3.2169 C   0  0  0  0  0  0  0  0  0  0  0  0
    0.1587    1.8007    3.1762 C   0  0  0  0  0  0  0  0  0  0  0  0
    0.0351    0.2794    3.0650 C   0  0  0  0  0  0  0  0  0  0  0  0
    0.6953   -0.1889    1.7644 C   0  0  0  0  0  0  0  0  0  0  0  0
    2.2289   -4.1077    7.3210 H   0  0  0  0  0  0  0  0  0  0  0  0
    1.0694   -2.9822    6.5746 H   0  0  0  0  0  0  0  0  0  0  0  0
    1.3055   -4.6051    5.8829 H   0  0  0  0  0  0  0  0  0  0  0  0
    3.2837   -5.1220    4.5736 H   0  0  0  0  0  0  0  0  0  0  0  0
    5.0695   -4.2441    3.1233 H   0  0  0  0  0  0  0  0  0  0  0  0
    4.5088   -0.3568    4.7860 H   0  0  0  0  0  0  0  0  0  0  0  0
    2.7173   -1.2331    6.2304 H   0  0  0  0  0  0  0  0  0  0  0  0
    5.6689   -1.5710    0.5809 H   0  0  0  0  0  0  0  0  0  0  0  0
    4.5436    0.1390   -0.7226 H   0  0  0  0  0  0  0  0  0  0  0  0
    3.8916    1.5762    0.1006 H   0  0  0  0  0  0  0  0  0  0  0  0
    5.3750    3.2343    1.0676 H   0  0  0  0  0  0  0  0  0  0  0  0
    7.6038    4.2788    1.0094 H   0  0  0  0  0  0  0  0  0  0  0  0
    9.4987    3.0811   -0.0099 H   0  0  0  0  0  0  0  0  0  0  0  0
    6.9392   -0.2134   -0.8960 H   0  0  0  0  0  0  0  0  0  0  0  0
    9.5496    0.8707   -2.2005 H   0  0  0  0  0  0  0  0  0  0  0  0
   10.9305    2.0127   -0.6307 H   0  0  0  0  0  0  0  0  0  0  0  0
   10.7172    0.8178    0.5063 H   0  0  0  0  0  0  0  0  0  0  0  0
   10.0684   -1.3340   -1.3888 H   0  0  0  0  0  0  0  0  0  0  0  0
    9.1852   -1.0630   -0.0059 H   0  0  0  0  0  0  0  0  0  0  0  0
    1.8962    2.2989    1.0777 H   0  0  0  0  0  0  0  0  0  0  0  0
    3.3878    1.9331    1.9825 H   0  0  0  0  0  0  0  0  0  0  0  0
    1.7247    3.2741    3.3196 H   0  0  0  0  0  0  0  0  0  0  0  0
    2.1196    1.7060    4.0650 H   0  0  0  0  0  0  0  0  0  0  0  0
   -0.3319    2.1392    4.0888 H   0  0  0  0  0  0  0  0  0  0  0  0
   -0.3170    2.2677    2.3138 H   0  0  0  0  0  0  0  0  0  0  0  0
    0.5322   -0.1890    3.9145 H   0  0  0  0  0  0  0  0  0  0  0  0
   -1.0183   -0.0006    3.0596 H   0  0  0  0  0  0  0  0  0  0  0  0
    0.1434    0.2064    0.9116 H   0  0  0  0  0  0  0  0  0  0  0  0
    0.6979   -1.2783    1.7275 H   0  0  0  0  0  0  0  0  0  0  0  0
   10.7595    1.0182   -0.4916 N   0  3  0  0  0  0  0  0  0  0  0  0
   11.5312    0.4841   -0.9081 H   0  0  0  0  0  0  0  0  0  0  0  0
    9.2820   -0.8230   -0.9911 N   0  3  0  0  0  0  0  0  0  0  0  0
    8.4235   -1.0905   -1.4870 H   0  0  0  0  0  0  0  0  0  0  0  0
  1  2  1  0  0  0  0
  1 30  1  0  0  0  0
  1 31  1  0  0  0  0
  1 32  1  0  0  0  0
  2  7  2  0  0  0  0
  2  3  1  0  0  0  0
  3  4  2  0  0  0  0
  3 33  1  0  0  0  0
  4  5  1  0  0  0  0
  4 34  1  0  0  0  0
  5  6  2  0  0  0  0
  5  8  1  0  0  0  0
  6  7  1  0  0  0  0
  6 35  1  0  0  0  0
  7 36  1  0  0  0  0
  8  9  2  0  0  0  0
  8 10  2  0  0  0  0
  8 11  1  0  0  0  0
 11 12  1  0  0  0  0
 11 37  1  0  0  0  0
 12 13  1  0  0  0  0
 12 14  1  0  0  0  0
 12 22  1  0  0  0  0
 14 15  1  0  0  0  0
 14 38  1  0  0  0  0
 14 39  1  0  0  0  0
 15 20  2  0  0  0  0
 15 16  1  0  0  0  0
 16 17  2  0  0  0  0
 16 40  1  0  0  0  0
 17 18  1  0  0  0  0
 17 41  1  0  0  0  0
 18 19  2  0  0  0  0
 18 42  1  0  0  0  0
 19 20  1  0  0  0  0
 19 21  1  0  0  0  0
 20 43  1  0  0  0  0
 21 44  1  0  0  0  0
 21 59  1  0  0  0  0
 21 61  1  0  0  0  0
 22 23  2  0  0  0  0
 22 24  1  0  0  0  0
 24 29  1  0  0  0  0
 24 25  1  0  0  0  0
 25 26  1  0  0  0  0
 25 49  1  0  0  0  0
 25 50  1  0  0  0  0
 26 27  1  0  0  0  0
 26 51  1  0  0  0  0
 26 52  1  0  0  0  0
 27 28  1  0  0  0  0
 27 53  1  0  0  0  0
 27 54  1  0  0  0  0
 28 29  1  0  0  0  0
 28 55  1  0  0  0  0
 28 56  1  0  0  0  0
 29 57  1  0  0  0  0
 29 58  1  0  0  0  0
 45 59  1  0  0  0  0
 46 59  1  0  0  0  0
 47 61  1  0  0  0  0
 48 61  1  0  0  0  0
 59 60  1  0  0  0  0
 61 62  1  0  0  0  0
M  CHG  2  59   1  61   1
M  END
$$$$
ZINC03834187
  -OEChem-08230709403D

 54 56  0     0  0  0  0  0  0999 V2000
    3.0034   -0.9537    1.4555 C   0  0  0  0  0  0  0  0  0  0  0  0
    1.7176   -0.1998    1.2325 C   0  0  0  0  0  0  0  0  0  0  0  0
    0.8352   -0.5827    0.2329 C   0  0  0  0  0  0  0  0  0  0  0  0
   -0.3408    0.1353    0.0550 C   0  0  0  0  0  0  0  0  0  0  0  0
   -0.6227    1.1727    0.8265 N   0  0  0  0  0  0  0  0  0  0  0  0
    0.1966    1.5645    1.7888 C   0  0  0  0  0  0  0  0  0  0  0  0
    1.3901    0.8928    2.0221 C   0  0  0  0  0  0  0  0  0  0  0  0
    2.2219    1.2988    3.0062 F   0  0  0  0  0  0  0  0  0  0  0  0
   -0.1328    2.6346    2.5566 O   0  0  0  0  0  0  0  0  0  0  0  0
   -1.4452    2.9751    2.6472 C   0  0  0  0  0  0  0  0  0  0  0  0
   -2.4183    2.1388    2.1187 C   0  0  0  0  0  0  0  0  0  0  0  0
   -3.7516    2.4872    2.2120 C   0  0  0  0  0  0  0  0  0  0  0  0
   -4.1171    3.6681    2.8320 C   0  0  0  0  0  0  0  0  0  0  0  0
   -3.1497    4.5028    3.3597 C   0  0  0  0  0  0  0  0  0  0  0  0
   -1.8149    4.1567    3.2732 C   0  0  0  0  0  0  0  0  0  0  0  0
   -3.5517    5.7887    4.0350 C   0  0  0  0  0  0  0  0  0  0  0  0
   -1.2105   -0.2319   -0.9207 O   0  0  0  0  0  0  0  0  0  0  0  0
   -2.2654    0.5859   -1.1757 C   0  0  0  0  0  0  0  0  0  0  0  0
   -2.1621    1.9489   -0.9364 C   0  0  0  0  0  0  0  0  0  0  0  0
   -3.2358    2.7778   -1.1965 C   0  0  0  0  0  0  0  0  0  0  0  0
   -4.4130    2.2507   -1.6953 C   0  0  0  0  0  0  0  0  0  0  0  0
   -4.5184    0.8932   -1.9350 C   0  0  0  0  0  0  0  0  0  0  0  0
   -3.4457    0.0603   -1.6812 C   0  0  0  0  0  0  0  0  0  0  0  0
   -5.8026    0.3223   -2.4791 C   0  0  0  0  0  0  0  0  0  0  0  0
    1.1164   -1.6408   -0.5586 F   0  0  0  0  0  0  0  0  0  0  0  0
    3.7931   -0.5128    0.8472 H   0  0  0  0  0  0  0  0  0  0  0  0
    3.2804   -0.8961    2.5081 H   0  0  0  0  0  0  0  0  0  0  0  0
    2.8664   -1.9973    1.1723 H   0  0  0  0  0  0  0  0  0  0  0  0
   -2.1334    1.2164    1.6345 H   0  0  0  0  0  0  0  0  0  0  0  0
   -4.5093    1.8366    1.8009 H   0  0  0  0  0  0  0  0  0  0  0  0
   -5.1602    3.9385    2.9042 H   0  0  0  0  0  0  0  0  0  0  0  0
   -1.0598    4.8070    3.6896 H   0  0  0  0  0  0  0  0  0  0  0  0
   -3.5832    6.5915    3.2984 H   0  0  0  0  0  0  0  0  0  0  0  0
   -5.5822    5.4637    3.9365 H   0  0  0  0  0  0  0  0  0  0  0  0
   -4.8768    4.8896    5.3289 H   0  0  0  0  0  0  0  0  0  0  0  0
   -2.8205    6.9792    5.5471 H   0  0  0  0  0  0  0  0  0  0  0  0
   -2.4781    5.3631    5.7393 H   0  0  0  0  0  0  0  0  0  0  0  0
   -1.2430    2.3611   -0.5468 H   0  0  0  0  0  0  0  0  0  0  0  0
   -3.1559    3.8387   -1.0104 H   0  0  0  0  0  0  0  0  0  0  0  0
   -5.2513    2.9006   -1.8983 H   0  0  0  0  0  0  0  0  0  0  0  0
   -3.5271   -0.9994   -1.8728 H   0  0  0  0  0  0  0  0  0  0  0  0
   -6.4548    0.0420   -1.6520 H   0  0  0  0  0  0  0  0  0  0  0  0
   -5.8879    1.6069   -4.0857 H   0  0  0  0  0  0  0  0  0  0  0  0
   -7.3674    0.9948   -3.6357 H   0  0  0  0  0  0  0  0  0  0  0  0
   -4.9867   -1.5470   -2.7594 H   0  0  0  0  0  0  0  0  0  0  0  0
   -6.3507   -1.2662   -3.6686 H   0  0  0  0  0  0  0  0  0  0  0  0
   -4.8825    5.6514    4.6526 N   0  3  0  0  0  0  0  0  0  0  0  0
   -5.1227    6.5255    5.1347 H   0  0  0  0  0  0  0  0  0  0  0  0
   -2.5522    6.1230    5.0649 N   0  3  0  0  0  0  0  0  0  0  0  0
   -1.6393    6.2631    4.6164 H   0  0  0  0  0  0  0  0  0  0  0  0
   -6.4753    1.3490   -3.2944 N   0  3  0  0  0  0  0  0  0  0  0  0
   -6.6441    2.1812   -2.7172 H   0  0  0  0  0  0  0  0  0  0  0  0
   -5.4909   -0.8540   -3.3101 N   0  3  0  0  0  0  0  0  0  0  0  0
   -4.9040   -0.5628   -4.1006 H   0  0  0  0  0  0  0  0  0  0  0  0
  1  2  1  0  0  0  0
  1 26  1  0  0  0  0
  1 27  1  0  0  0  0
  1 28  1  0  0  0  0
  2  7  2  0  0  0  0
  2  3  1  0  0  0  0
  3  4  2  0  0  0  0
  3 25  1  0  0  0  0
  4  5  1  0  0  0  0
  4 17  1  0  0  0  0
  5  6  2  0  0  0  0
  6  7  1  0  0  0  0
  6  9  1  0  0  0  0
  7  8  1  0  0  0  0
  9 10  1  0  0  0  0
 10 15  2  0  0  0  0
 10 11  1  0  0  0  0
 11 12  2  0  0  0  0
 11 29  1  0  0  0  0
 12 13  1  0  0  0  0
 12 30  1  0  0  0  0
 13 14  2  0  0  0  0
 13 31  1  0  0  0  0
 14 15  1  0  0  0  0
 14 16  1  0  0  0  0
 15 32  1  0  0  0  0
 16 33  1  0  0  0  0
 16 47  1  0  0  0  0
 16 49  1  0  0  0  0
 17 18  1  0  0  0  0
 18 23  2  0  0  0  0
 18 19  1  0  0  0  0
 19 20  2  0  0  0  0
 19 38  1  0  0  0  0
 20 21  1  0  0  0  0
 20 39  1  0  0  0  0
 21 22  2  0  0  0  0
 21 40  1  0  0  0  0
 22 23  1  0  0  0  0
 22 24  1  0  0  0  0
 23 41  1  0  0  0  0
 24 42  1  0  0  0  0
 24 51  1  0  0  0  0
 24 53  1  0  0  0  0
 34 47  1  0  0  0  0
 35 47  1  0  0  0  0
 36 49  1  0  0  0  0
 37 49  1  0  0  0  0
 43 51  1  0  0  0  0
 44 51  1  0  0  0  0
 45 53  1  0  0  0  0
 46 53  1  0  0  0  0
 47 48  1  0  0  0  0
 49 50  1  0  0  0  0
 51 52  1  0  0  0  0
 53 54  1  0  0  0  0
M  CHG  4  47   1  49   1  51   1  53   1
M  END
$$$$
ZINC04617941
  -OEChem-08230709403D

 48 50  0     0  0  0  0  0  0999 V2000
   -1.2745    4.2868   -1.5072 C   0  0  0  0  0  0  0  0  0  0  0  0
   -1.3854    2.7640   -1.6058 C   0  0  0  0  0  0  0  0  0  0  0  0
   -0.8199    2.2973   -2.9487 C   0  0  0  0  0  0  0  0  0  0  0  0
   -0.5922    2.1201   -0.4669 C   0  0  0  0  0  0  0  0  0  0  0  0
   -1.1917    2.4625    0.7842 O   0  0  0  0  0  0  0  0  0  0  0  0
   -0.6046    1.9669    1.9064 C   0  0  0  0  0  0  0  0  0  0  0  0
    0.5235    1.1688    1.8035 C   0  0  0  0  0  0  0  0  0  0  0  0
    1.1262    0.6615    2.9416 C   0  0  0  0  0  0  0  0  0  0  0  0
    0.6100    0.9459    4.1883 C   0  0  0  0  0  0  0  0  0  0  0  0
   -0.5259    1.7492    4.3071 C   0  0  0  0  0  0  0  0  0  0  0  0
   -1.1328    2.2657    3.1573 C   0  0  0  0  0  0  0  0  0  0  0  0
   -2.2357    3.0521    3.2623 O   0  0  0  0  0  0  0  0  0  0  0  0
   -1.0814    2.0564    5.6414 C   0  0  0  0  0  0  0  0  0  0  0  0
   -0.5683    1.6104    6.8300 N   0  0  0  0  0  0  0  0  0  0  0  0
    0.2361    1.0281    6.9479 H   0  0  0  0  0  0  0  0  0  0  0  0
   -1.3697    2.1152    7.8359 C   0  0  0  0  0  0  0  0  0  0  0  0
   -1.3566    2.0136    9.2200 C   0  0  0  0  0  0  0  0  0  0  0  0
   -2.3265    2.6565    9.9621 C   0  0  0  0  0  0  0  0  0  0  0  0
   -3.3139    3.4032    9.3329 C   0  0  0  0  0  0  0  0  0  0  0  0
   -3.3421    3.5146    7.9719 C   0  0  0  0  0  0  0  0  0  0  0  0
   -2.3694    2.8717    7.1993 C   0  0  0  0  0  0  0  0  0  0  0  0
   -2.1363    2.8017    5.8656 N   0  0  0  0  0  0  0  0  0  0  0  0
   -4.3646    4.0981   10.1601 C   0  0  0  0  0  0  0  0  0  0  0  0
   -2.3124    2.5303   11.6935 Cl  0  0  0  0  0  0  0  0  0  0  0  0
   -0.2275    4.5804   -1.5823 H   0  0  0  0  0  0  0  0  0  0  0  0
   -1.8397    4.7455   -2.3186 H   0  0  0  0  0  0  0  0  0  0  0  0
   -1.6774    4.6192   -0.5505 H   0  0  0  0  0  0  0  0  0  0  0  0
   -2.4324    2.4703   -1.5307 H   0  0  0  0  0  0  0  0  0  0  0  0
   -0.8989    1.2125   -3.0189 H   0  0  0  0  0  0  0  0  0  0  0  0
   -1.3850    2.7561   -3.7601 H   0  0  0  0  0  0  0  0  0  0  0  0
    0.2271    2.5910   -3.0238 H   0  0  0  0  0  0  0  0  0  0  0  0
   -0.5972    1.0368   -0.5878 H   0  0  0  0  0  0  0  0  0  0  0  0
    0.4353    2.4834   -0.4891 H   0  0  0  0  0  0  0  0  0  0  0  0
    0.9341    0.9412    0.8309 H   0  0  0  0  0  0  0  0  0  0  0  0
    2.0052    0.0402    2.8528 H   0  0  0  0  0  0  0  0  0  0  0  0
    1.0846    0.5477    5.0729 H   0  0  0  0  0  0  0  0  0  0  0  0
   -3.0701    2.5636    3.2462 H   0  0  0  0  0  0  0  0  0  0  0  0
   -0.5913    1.4334    9.7141 H   0  0  0  0  0  0  0  0  0  0  0  0
   -4.1142    4.0985    7.4929 H   0  0  0  0  0  0  0  0  0  0  0  0
   -4.6004    3.4900   11.0334 H   0  0  0  0  0  0  0  0  0  0  0  0
   -3.0747    5.2999   11.2231 H   0  0  0  0  0  0  0  0  0  0  0  0
   -3.6127    5.9814    9.8047 H   0  0  0  0  0  0  0  0  0  0  0  0
   -5.9089    3.4070    8.9871 H   0  0  0  0  0  0  0  0  0  0  0  0
   -6.2976    4.7513    9.8857 H   0  0  0  0  0  0  0  0  0  0  0  0
   -3.8788    5.4150   10.6085 N   0  3  0  0  0  0  0  0  0  0  0  0
   -4.6276    5.8938   11.1226 H   0  0  0  0  0  0  0  0  0  0  0  0
   -5.5682    4.3018    9.3347 N   0  3  0  0  0  0  0  0  0  0  0  0
   -5.3324    4.9034    8.5367 H   0  0  0  0  0  0  0  0  0  0  0  0
  1  2  1  0  0  0  0
  1 25  1  0  0  0  0
  1 26  1  0  0  0  0
  1 27  1  0  0  0  0
  2  3  1  0  0  0  0
  2  4  1  0  0  0  0
  2 28  1  0  0  0  0
  3 29  1  0  0  0  0
  3 30  1  0  0  0  0
  3 31  1  0  0  0  0
  4  5  1  0  0  0  0
  4 32  1  0  0  0  0
  4 33  1  0  0  0  0
  5  6  1  0  0  0  0
  6 11  2  0  0  0  0
  6  7  1  0  0  0  0
  7  8  2  0  0  0  0
  7 34  1  0  0  0  0
  8  9  1  0  0  0  0
  8 35  1  0  0  0  0
  9 10  2  0  0  0  0
  9 36  1  0  0  0  0
 10 11  1  0  0  0  0
 10 13  1  0  0  0  0
 11 12  1  0  0  0  0
 12 37  1  0  0  0  0
 13 22  2  0  0  0  0
 13 14  1  0  0  0  0
 14 15  1  0  0  0  0
 14 16  1  0  0  0  0
 16 21  2  0  0  0  0
 16 17  1  0  0  0  0
 17 18  2  0  0  0  0
 17 38  1  0  0  0  0
 18 19  1  0  0  0  0
 18 24  1  0  0  0  0
 19 20  2  0  0  0  0
 19 23  1  0  0  0  0
 20 21  1  0  0  0  0
 20 39  1  0  0  0  0
 21 22  1  0  0  0  0
 23 40  1  0  0  0  0
 23 45  1  0  0  0  0
 23 47  1  0  0  0  0
 41 45  1  0  0  0  0
 42 45  1  0  0  0  0
 43 47  1  0  0  0  0
 44 47  1  0  0  0  0
 45 46  1  0  0  0  0
 47 48  1  0  0  0  0
M  CHG  2  45   1  47   1
M  END
$$$$
ZINC04617941
  -OEChem-08230709403D

 48 50  0     0  0  0  0  0  0999 V2000
   -1.2745    4.2868   -1.5072 C   0  0  0  0  0  0  0  0  0  0  0  0
   -1.3854    2.7640   -1.6058 C   0  0  0  0  0  0  0  0  0  0  0  0
   -0.8199    2.2973   -2.9487 C   0  0  0  0  0  0  0  0  0  0  0  0
   -0.5922    2.1201   -0.4669 C   0  0  0  0  0  0  0  0  0  0  0  0
   -1.1917    2.4625    0.7842 O   0  0  0  0  0  0  0  0  0  0  0  0
   -0.6046    1.9669    1.9064 C   0  0  0  0  0  0  0  0  0  0  0  0
    0.5235    1.1688    1.8035 C   0  0  0  0  0  0  0  0  0  0  0  0
    1.1262    0.6615    2.9416 C   0  0  0  0  0  0  0  0  0  0  0  0
    0.6100    0.9459    4.1883 C   0  0  0  0  0  0  0  0  0  0  0  0
   -0.5259    1.7492    4.3071 C   0  0  0  0  0  0  0  0  0  0  0  0
   -1.1328    2.2657    3.1573 C   0  0  0  0  0  0  0  0  0  0  0  0
   -2.2357    3.0521    3.2623 O   0  0  0  0  0  0  0  0  0  0  0  0
   -1.0814    2.0564    5.6414 C   0  0  0  0  0  0  0  0  0  0  0  0
   -0.5683    1.6104    6.8300 N   0  0  0  0  0  0  0  0  0  0  0  0
    0.2361    1.0281    6.9479 H   0  0  0  0  0  0  0  0  0  0  0  0
   -1.3697    2.1152    7.8359 C   0  0  0  0  0  0  0  0  0  0  0  0
   -1.3566    2.0136    9.2200 C   0  0  0  0  0  0  0  0  0  0  0  0
   -2.3265    2.6565    9.9621 C   0  0  0  0  0  0  0  0  0  0  0  0
   -3.3139    3.4032    9.3329 C   0  0  0  0  0  0  0  0  0  0  0  0
   -3.3421    3.5146    7.9719 C   0  0  0  0  0  0  0  0  0  0  0  0
   -2.3694    2.8717    7.1993 C   0  0  0  0  0  0  0  0  0  0  0  0
   -2.1363    2.8017    5.8656 N   0  0  0  0  0  0  0  0  0  0  0  0
   -4.3646    4.0981   10.1601 C   0  0  0  0  0  0  0  0  0  0  0  0
   -2.3124    2.5303   11.6935 Cl  0  0  0  0  0  0  0  0  0  0  0  0
   -0.2275    4.5804   -1.5823 H   0  0  0  0  0  0  0  0  0  0  0  0
   -1.8397    4.7455   -2.3186 H   0  0  0  0  0  0  0  0  0  0  0  0
   -1.6774    4.6192   -0.5505 H   0  0  0  0  0  0  0  0  0  0  0  0
   -2.4324    2.4703   -1.5307 H   0  0  0  0  0  0  0  0  0  0  0  0
   -0.8989    1.2125   -3.0189 H   0  0  0  0  0  0  0  0  0  0  0  0
   -1.3850    2.7561   -3.7601 H   0  0  0  0  0  0  0  0  0  0  0  0
    0.2271    2.5910   -3.0238 H   0  0  0  0  0  0  0  0  0  0  0  0
   -0.5972    1.0368   -0.5878 H   0  0  0  0  0  0  0  0  0  0  0  0
    0.4353    2.4834   -0.4891 H   0  0  0  0  0  0  0  0  0  0  0  0
    0.9341    0.9412    0.8309 H   0  0  0  0  0  0  0  0  0  0  0  0
    2.0052    0.0402    2.8528 H   0  0  0  0  0  0  0  0  0  0  0  0
    1.0846    0.5477    5.0729 H   0  0  0  0  0  0  0  0  0  0  0  0
   -3.0701    2.5636    3.2462 H   0  0  0  0  0  0  0  0  0  0  0  0
   -0.5913    1.4334    9.7141 H   0  0  0  0  0  0  0  0  0  0  0  0
   -4.1142    4.0985    7.4929 H   0  0  0  0  0  0  0  0  0  0  0  0
   -4.6004    3.4900   11.0334 H   0  0  0  0  0  0  0  0  0  0  0  0
   -3.0747    5.2999   11.2231 H   0  0  0  0  0  0  0  0  0  0  0  0
   -3.6127    5.9814    9.8047 H   0  0  0  0  0  0  0  0  0  0  0  0
   -5.9089    3.4070    8.9871 H   0  0  0  0  0  0  0  0  0  0  0  0
   -6.2976    4.7513    9.8857 H   0  0  0  0  0  0  0  0  0  0  0  0
   -3.8788    5.4150   10.6085 N   0  3  0  0  0  0  0  0  0  0  0  0
   -4.6276    5.8938   11.1226 H   0  0  0  0  0  0  0  0  0  0  0  0
   -5.5682    4.3018    9.3347 N   0  3  0  0  0  0  0  0  0  0  0  0
   -5.3324    4.9034    8.5367 H   0  0  0  0  0  0  0  0  0  0  0  0
  1  2  1  0  0  0  0
  1 25  1  0  0  0  0
  1 26  1  0  0  0  0
  1 27  1  0  0  0  0
  2  3  1  0  0  0  0
  2  4  1  0  0  0  0
  2 28  1  0  0  0  0
  3 29  1  0  0  0  0
  3 30  1  0  0  0  0
  3 31  1  0  0  0  0
  4  5  1  0  0  0  0
  4 32  1  0  0  0  0
  4 33  1  0  0  0  0
  5  6  1  0  0  0  0
  6 11  2  0  0  0  0
  6  7  1  0  0  0  0
  7  8  2  0  0  0  0
  7 34  1  0  0  0  0
  8  9  1  0  0  0  0
  8 35  1  0  0  0  0
  9 10  2  0  0  0  0
  9 36  1  0  0  0  0
 10 11  1  0  0  0  0
 10 13  1  0  0  0  0
 11 12  1  0  0  0  0
 12 37  1  0  0  0  0
 13 22  2  0  0  0  0
 13 14  1  0  0  0  0
 14 15  1  0  0  0  0
 14 16  1  0  0  0  0
 16 21  2  0  0  0  0
 16 17  1  0  0  0  0
 17 18  2  0  0  0  0
 17 38  1  0  0  0  0
 18 19  1  0  0  0  0
 18 24  1  0  0  0  0
 19 20  2  0  0  0  0
 19 23  1  0  0  0  0
 20 21  1  0  0  0  0
 20 39  1  0  0  0  0
 21 22  1  0  0  0  0
 23 40  1  0  0  0  0
 23 45  1  0  0  0  0
 23 47  1  0  0  0  0
 41 45  1  0  0  0  0
 42 45  1  0  0  0  0
 43 47  1  0  0  0  0
 44 47  1  0  0  0  0
 45 46  1  0  0  0  0
 47 48  1  0  0  0  0
M  CHG  2  45   1  47   1
M  END
$$$$
ZINC04617942
  -OEChem-08230709403D

 55 58  0     1  0  0  0  0  0999 V2000
   -0.3188    1.6289    0.5736 C   0  0  0  0  0  0  0  0  0  0  0  0
   -0.9362    1.9941    1.9250 C   0  0  1  0  0  0  0  0  0  0  0  0
   -0.9318    3.0774    2.0457 H   0  0  0  0  0  0  0  0  0  0  0  0
   -2.3762    1.4803    1.9834 C   0  0  0  0  0  0  0  0  0  0  0  0
   -2.9936    1.8455    3.3349 C   0  0  0  0  0  0  0  0  0  0  0  0
   -2.1772    1.2039    4.4586 C   0  0  0  0  0  0  0  0  0  0  0  0
   -0.7372    1.7176    4.4002 C   0  0  0  0  0  0  0  0  0  0  0  0
   -0.1198    1.3525    3.0487 C   0  0  2  0  0  0  0  0  0  0  0  0
   -0.1243    0.2692    2.9281 H   0  0  0  0  0  0  0  0  0  0  0  0
    1.2251    1.8323    2.9942 O   0  0  0  0  0  0  0  0  0  0  0  0
    2.1825    1.0523    3.5637 C   0  0  0  0  0  0  0  0  0  0  0  0
    1.8458   -0.1842    4.0911 C   0  0  0  0  0  0  0  0  0  0  0  0
    2.8163   -0.9854    4.6674 C   0  0  0  0  0  0  0  0  0  0  0  0
    4.1252   -0.5562    4.7315 C   0  0  0  0  0  0  0  0  0  0  0  0
    4.4779    0.6898    4.2093 C   0  0  0  0  0  0  0  0  0  0  0  0
    3.4983    1.4976    3.6220 C   0  0  0  0  0  0  0  0  0  0  0  0
    3.8312    2.7115    3.1107 O   0  0  0  0  0  0  0  0  0  0  0  0
    5.8795    1.1529    4.2763 C   0  0  0  0  0  0  0  0  0  0  0  0
    6.9158    0.4500    4.8312 N   0  0  0  0  0  0  0  0  0  0  0  0
    6.8594   -0.4524    5.2583 H   0  0  0  0  0  0  0  0  0  0  0  0
    8.0537    1.2208    4.6905 C   0  0  0  0  0  0  0  0  0  0  0  0
    9.3839    1.0478    5.0468 C   0  0  0  0  0  0  0  0  0  0  0  0
   10.3026    2.0391    4.7635 C   0  0  0  0  0  0  0  0  0  0  0  0
    9.9030    3.2065    4.1239 C   0  0  0  0  0  0  0  0  0  0  0  0
    8.5981    3.3928    3.7664 C   0  0  0  0  0  0  0  0  0  0  0  0
    7.6504    2.4023    4.0439 C   0  0  0  0  0  0  0  0  0  0  0  0
    6.3171    2.3005    3.8186 N   0  0  0  0  0  0  0  0  0  0  0  0
   10.9195    4.2774    3.8222 C   0  0  0  0  0  0  0  0  0  0  0  0
   11.5979    1.8730    5.1098 F   0  0  0  0  0  0  0  0  0  0  0  0
   -0.3233    0.5456    0.4529 H   0  0  0  0  0  0  0  0  0  0  0  0
    0.7070    1.9950    0.5320 H   0  0  0  0  0  0  0  0  0  0  0  0
   -0.9005    2.0860   -0.2270 H   0  0  0  0  0  0  0  0  0  0  0  0
   -2.9578    1.9374    1.1829 H   0  0  0  0  0  0  0  0  0  0  0  0
   -2.3806    0.3970    1.8628 H   0  0  0  0  0  0  0  0  0  0  0  0
   -4.0194    1.4795    3.3765 H   0  0  0  0  0  0  0  0  0  0  0  0
   -2.9892    2.9288    3.4555 H   0  0  0  0  0  0  0  0  0  0  0  0
   -2.1816    0.1206    4.3379 H   0  0  0  0  0  0  0  0  0  0  0  0
   -2.6170    1.4640    5.4214 H   0  0  0  0  0  0  0  0  0  0  0  0
   -0.1556    1.2605    5.2007 H   0  0  0  0  0  0  0  0  0  0  0  0
   -0.7328    2.8009    4.5208 H   0  0  0  0  0  0  0  0  0  0  0  0
    0.8221   -0.5258    4.0489 H   0  0  0  0  0  0  0  0  0  0  0  0
    2.5463   -1.9495    5.0724 H   0  0  0  0  0  0  0  0  0  0  0  0
    4.8776   -1.1838    5.1859 H   0  0  0  0  0  0  0  0  0  0  0  0
    3.7661    3.4373    3.7463 H   0  0  0  0  0  0  0  0  0  0  0  0
    9.6990    0.1423    5.5440 H   0  0  0  0  0  0  0  0  0  0  0  0
    8.2983    4.3041    3.2704 H   0  0  0  0  0  0  0  0  0  0  0  0
   11.8765    3.8132    3.5839 H   0  0  0  0  0  0  0  0  0  0  0  0
   11.0864    5.8518    2.5063 H   0  0  0  0  0  0  0  0  0  0  0  0
   10.3665    4.5028    1.8520 H   0  0  0  0  0  0  0  0  0  0  0  0
   10.2020    5.5905    5.2361 H   0  0  0  0  0  0  0  0  0  0  0  0
   11.4501    4.6349    5.7790 H   0  0  0  0  0  0  0  0  0  0  0  0
   10.4415    5.0838    2.6854 N   0  3  0  0  0  0  0  0  0  0  0  0
    9.5164    5.4686    2.9098 H   0  0  0  0  0  0  0  0  0  0  0  0
   11.0929    5.1648    4.9857 N   0  3  0  0  0  0  0  0  0  0  0  0
   11.7632    5.9054    4.7484 H   0  0  0  0  0  0  0  0  0  0  0  0
  1  2  1  0  0  0  0
  1 30  1  0  0  0  0
  1 31  1  0  0  0  0
  1 32  1  0  0  0  0
  2  3  1  0  0  0  0
  2  8  1  0  0  0  0
  2  4  1  0  0  0  0
  4  5  1  0  0  0  0
  4 33  1  0  0  0  0
  4 34  1  0  0  0  0
  5  6  1  0  0  0  0
  5 35  1  0  0  0  0
  5 36  1  0  0  0  0
  6  7  1  0  0  0  0
  6 37  1  0  0  0  0
  6 38  1  0  0  0  0
  7  8  1  0  0  0  0
  7 39  1  0  0  0  0
  7 40  1  0  0  0  0
  8  9  1  0  0  0  0
  8 10  1  0  0  0  0
 10 11  1  0  0  0  0
 11 16  2  0  0  0  0
 11 12  1  0  0  0  0
 12 13  2  0  0  0  0
 12 41  1  0  0  0  0
 13 14  1  0  0  0  0
 13 42  1  0  0  0  0
 14 15  2  0  0  0  0
 14 43  1  0  0  0  0
 15 16  1  0  0  0  0
 15 18  1  0  0  0  0
 16 17  1  0  0  0  0
 17 44  1  0  0  0  0
 18 27  2  0  0  0  0
 18 19  1  0  0  0  0
 19 20  1  0  0  0  0
 19 21  1  0  0  0  0
 21 26  2  0  0  0  0
 21 22  1  0  0  0  0
 22 23  2  0  0  0  0
 22 45  1  0  0  0  0
 23 24  1  0  0  0  0
 23 29  1  0  0  0  0
 24 25  2  0  0  0  0
 24 28  1  0  0  0  0
 25 26  1  0  0  0  0
 25 46  1  0  0  0  0
 26 27  1  0  0  0  0
 28 47  1  0  0  0  0
 28 52  1  0  0  0  0
 28 54  1  0  0  0  0
 48 52  1  0  0  0  0
 49 52  1  0  0  0  0
 50 54  1  0  0  0  0
 51 54  1  0  0  0  0
 52 53  1  0  0  0  0
 54 55  1  0  0  0  0
M  CHG  2  52   1  54   1
M  END
$$$$
ZINC04617942
  -OEChem-08230709403D

 55 58  0     1  0  0  0  0  0999 V2000
   -0.3188    1.6289    0.5736 C   0  0  0  0  0  0  0  0  0  0  0  0
   -0.9362    1.9941    1.9250 C   0  0  1  0  0  0  0  0  0  0  0  0
   -0.9318    3.0774    2.0457 H   0  0  0  0  0  0  0  0  0  0  0  0
   -2.3762    1.4803    1.9834 C   0  0  0  0  0  0  0  0  0  0  0  0
   -2.9936    1.8455    3.3349 C   0  0  0  0  0  0  0  0  0  0  0  0
   -2.1772    1.2039    4.4586 C   0  0  0  0  0  0  0  0  0  0  0  0
   -0.7372    1.7176    4.4002 C   0  0  0  0  0  0  0  0  0  0  0  0
   -0.1198    1.3525    3.0487 C   0  0  2  0  0  0  0  0  0  0  0  0
   -0.1243    0.2692    2.9281 H   0  0  0  0  0  0  0  0  0  0  0  0
    1.2251    1.8323    2.9942 O   0  0  0  0  0  0  0  0  0  0  0  0
    2.1825    1.0523    3.5637 C   0  0  0  0  0  0  0  0  0  0  0  0
    1.8458   -0.1842    4.0911 C   0  0  0  0  0  0  0  0  0  0  0  0
    2.8163   -0.9854    4.6674 C   0  0  0  0  0  0  0  0  0  0  0  0
    4.1252   -0.5562    4.7315 C   0  0  0  0  0  0  0  0  0  0  0  0
    4.4779    0.6898    4.2093 C   0  0  0  0  0  0  0  0  0  0  0  0
    3.4983    1.4976    3.6220 C   0  0  0  0  0  0  0  0  0  0  0  0
    3.8312    2.7115    3.1107 O   0  0  0  0  0  0  0  0  0  0  0  0
    5.8795    1.1529    4.2763 C   0  0  0  0  0  0  0  0  0  0  0  0
    6.9158    0.4500    4.8312 N   0  0  0  0  0  0  0  0  0  0  0  0
    6.8594   -0.4524    5.2583 H   0  0  0  0  0  0  0  0  0  0  0  0
    8.0537    1.2208    4.6905 C   0  0  0  0  0  0  0  0  0  0  0  0
    9.3839    1.0478    5.0468 C   0  0  0  0  0  0  0  0  0  0  0  0
   10.3026    2.0391    4.7635 C   0  0  0  0  0  0  0  0  0  0  0  0
    9.9030    3.2065    4.1239 C   0  0  0  0  0  0  0  0  0  0  0  0
    8.5981    3.3928    3.7664 C   0  0  0  0  0  0  0  0  0  0  0  0
    7.6504    2.4023    4.0439 C   0  0  0  0  0  0  0  0  0  0  0  0
    6.3171    2.3005    3.8186 N   0  0  0  0  0  0  0  0  0  0  0  0
   10.9195    4.2774    3.8222 C   0  0  0  0  0  0  0  0  0  0  0  0
   11.5979    1.8730    5.1098 F   0  0  0  0  0  0  0  0  0  0  0  0
   -0.3233    0.5456    0.4529 H   0  0  0  0  0  0  0  0  0  0  0  0
    0.7070    1.9950    0.5320 H   0  0  0  0  0  0  0  0  0  0  0  0
   -0.9005    2.0860   -0.2270 H   0  0  0  0  0  0  0  0  0  0  0  0
   -2.9578    1.9374    1.1829 H   0  0  0  0  0  0  0  0  0  0  0  0
   -2.3806    0.3970    1.8628 H   0  0  0  0  0  0  0  0  0  0  0  0
   -4.0194    1.4795    3.3765 H   0  0  0  0  0  0  0  0  0  0  0  0
   -2.9892    2.9288    3.4555 H   0  0  0  0  0  0  0  0  0  0  0  0
   -2.1816    0.1206    4.3379 H   0  0  0  0  0  0  0  0  0  0  0  0
   -2.6170    1.4640    5.4214 H   0  0  0  0  0  0  0  0  0  0  0  0
   -0.1556    1.2605    5.2007 H   0  0  0  0  0  0  0  0  0  0  0  0
   -0.7328    2.8009    4.5208 H   0  0  0  0  0  0  0  0  0  0  0  0
    0.8221   -0.5258    4.0489 H   0  0  0  0  0  0  0  0  0  0  0  0
    2.5463   -1.9495    5.0724 H   0  0  0  0  0  0  0  0  0  0  0  0
    4.8776   -1.1838    5.1859 H   0  0  0  0  0  0  0  0  0  0  0  0
    3.7661    3.4373    3.7463 H   0  0  0  0  0  0  0  0  0  0  0  0
    9.6990    0.1423    5.5440 H   0  0  0  0  0  0  0  0  0  0  0  0
    8.2983    4.3041    3.2704 H   0  0  0  0  0  0  0  0  0  0  0  0
   11.8765    3.8132    3.5839 H   0  0  0  0  0  0  0  0  0  0  0  0
   11.0864    5.8518    2.5063 H   0  0  0  0  0  0  0  0  0  0  0  0
   10.3665    4.5028    1.8520 H   0  0  0  0  0  0  0  0  0  0  0  0
   10.2020    5.5905    5.2361 H   0  0  0  0  0  0  0  0  0  0  0  0
   11.4501    4.6349    5.7790 H   0  0  0  0  0  0  0  0  0  0  0  0
   10.4415    5.0838    2.6854 N   0  3  0  0  0  0  0  0  0  0  0  0
    9.5164    5.4686    2.9098 H   0  0  0  0  0  0  0  0  0  0  0  0
   11.0929    5.1648    4.9857 N   0  3  0  0  0  0  0  0  0  0  0  0
   11.7632    5.9054    4.7484 H   0  0  0  0  0  0  0  0  0  0  0  0
  1  2  1  0  0  0  0
  1 30  1  0  0  0  0
  1 31  1  0  0  0  0
  1 32  1  0  0  0  0
  2  3  1  0  0  0  0
  2  8  1  0  0  0  0
  2  4  1  0  0  0  0
  4  5  1  0  0  0  0
  4 33  1  0  0  0  0
  4 34  1  0  0  0  0
  5  6  1  0  0  0  0
  5 35  1  0  0  0  0
  5 36  1  0  0  0  0
  6  7  1  0  0  0  0
  6 37  1  0  0  0  0
  6 38  1  0  0  0  0
  7  8  1  0  0  0  0
  7 39  1  0  0  0  0
  7 40  1  0  0  0  0
  8  9  1  0  0  0  0
  8 10  1  0  0  0  0
 10 11  1  0  0  0  0
 11 16  2  0  0  0  0
 11 12  1  0  0  0  0
 12 13  2  0  0  0  0
 12 41  1  0  0  0  0
 13 14  1  0  0  0  0
 13 42  1  0  0  0  0
 14 15  2  0  0  0  0
 14 43  1  0  0  0  0
 15 16  1  0  0  0  0
 15 18  1  0  0  0  0
 16 17  1  0  0  0  0
 17 44  1  0  0  0  0
 18 27  2  0  0  0  0
 18 19  1  0  0  0  0
 19 20  1  0  0  0  0
 19 21  1  0  0  0  0
 21 26  2  0  0  0  0
 21 22  1  0  0  0  0
 22 23  2  0  0  0  0
 22 45  1  0  0  0  0
 23 24  1  0  0  0  0
 23 29  1  0  0  0  0
 24 25  2  0  0  0  0
 24 28  1  0  0  0  0
 25 26  1  0  0  0  0
 25 46  1  0  0  0  0
 26 27  1  0  0  0  0
 28 47  1  0  0  0  0
 28 52  1  0  0  0  0
 28 54  1  0  0  0  0
 48 52  1  0  0  0  0
 49 52  1  0  0  0  0
 50 54  1  0  0  0  0
 51 54  1  0  0  0  0
 52 53  1  0  0  0  0
 54 55  1  0  0  0  0
M  CHG  2  52   1  54   1
M  END
$$$$
