ZINC00007460
  -OEChem-08230709403D

 40 43  0     0  0  0  0  0  0999 V2000
    0.6690    7.0553   -2.3936 C   0  0  0  0  0  0  0  0  0  0  0  0
    1.0739    7.2419   -3.7133 C   0  0  0  0  0  0  0  0  0  0  0  0
    2.0473    6.4637   -4.2673 C   0  0  0  0  0  0  0  0  0  0  0  0
    2.6469    5.4619   -3.4971 C   0  0  0  0  0  0  0  0  0  0  0  0
    2.2350    5.2708   -2.1524 C   0  0  0  0  0  0  0  0  0  0  0  0
    1.2326    6.0886   -1.6150 C   0  0  0  0  0  0  0  0  0  0  0  0
    2.8646    4.2527   -1.4128 C   0  0  0  0  0  0  0  0  0  0  0  0
    3.8006    3.5320   -1.9865 N   0  0  0  0  0  0  0  0  0  0  0  0
    4.1739    3.6948   -3.2009 N   0  0  0  0  0  0  0  0  0  0  0  0
    3.6614    4.6154   -3.9991 C   0  0  0  0  0  0  0  0  0  0  0  0
    4.1107    4.7484   -5.3032 N   0  0  0  0  0  0  0  0  0  0  0  0
    5.0264    3.8294   -5.8242 C   0  0  0  0  0  0  0  0  0  0  0  0
    5.9973    4.2489   -6.7247 C   0  0  0  0  0  0  0  0  0  0  0  0
    6.9042    3.3400   -7.2334 C   0  0  0  0  0  0  0  0  0  0  0  0
    6.8391    2.0103   -6.8556 C   0  0  0  0  0  0  0  0  0  0  0  0
    5.8692    1.5885   -5.9630 C   0  0  0  0  0  0  0  0  0  0  0  0
    4.9634    2.4941   -5.4468 C   0  0  0  0  0  0  0  0  0  0  0  0
    7.9765    0.8693   -7.5021 Cl  0  0  0  0  0  0  0  0  0  0  0  0
    2.4744    3.9969    0.0202 C   0  0  0  0  0  0  0  0  0  0  0  0
    1.3575    2.9861    0.0639 C   0  0  0  0  0  0  0  0  0  0  0  0
    1.6310    1.6293    0.1449 C   0  0  0  0  0  0  0  0  0  0  0  0
    0.5807    0.7317    0.1834 C   0  0  0  0  0  0  0  0  0  0  0  0
   -0.6682    1.1526    0.1390 N   0  0  0  0  0  0  0  0  0  0  0  0
   -0.9655    2.4354    0.0670 C   0  0  0  0  0  0  0  0  0  0  0  0
    0.0320    3.3909    0.0245 C   0  0  0  0  0  0  0  0  0  0  0  0
   -0.1037    7.6868   -1.9806 H   0  0  0  0  0  0  0  0  0  0  0  0
    0.6099    8.0155   -4.3071 H   0  0  0  0  0  0  0  0  0  0  0  0
    2.3518    6.6190   -5.2917 H   0  0  0  0  0  0  0  0  0  0  0  0
    0.9091    5.9543   -0.5934 H   0  0  0  0  0  0  0  0  0  0  0  0
    3.7898    5.4792   -5.8545 H   0  0  0  0  0  0  0  0  0  0  0  0
    6.0458    5.2857   -7.0233 H   0  0  0  0  0  0  0  0  0  0  0  0
    7.6623    3.6665   -7.9298 H   0  0  0  0  0  0  0  0  0  0  0  0
    5.8209    0.5503   -5.6697 H   0  0  0  0  0  0  0  0  0  0  0  0
    4.2069    2.1645   -4.7500 H   0  0  0  0  0  0  0  0  0  0  0  0
    2.1399    4.9280    0.4774 H   0  0  0  0  0  0  0  0  0  0  0  0
    3.3346    3.6117    0.5677 H   0  0  0  0  0  0  0  0  0  0  0  0
    2.6518    1.2781    0.1771 H   0  0  0  0  0  0  0  0  0  0  0  0
    0.7853   -0.3269    0.2462 H   0  0  0  0  0  0  0  0  0  0  0  0
   -2.0005    2.7425    0.0368 H   0  0  0  0  0  0  0  0  0  0  0  0
   -0.2178    4.4397   -0.0389 H   0  0  0  0  0  0  0  0  0  0  0  0
  1  6  2  0  0  0  0
  1  2  1  0  0  0  0
  1 26  1  0  0  0  0
  2  3  2  0  0  0  0
  2 27  1  0  0  0  0
  3  4  1  0  0  0  0
  3 28  1  0  0  0  0
  4 10  2  0  0  0  0
  4  5  1  0  0  0  0
  5  6  1  0  0  0  0
  5  7  2  0  0  0  0
  6 29  1  0  0  0  0
  7  8  1  0  0  0  0
  7 19  1  0  0  0  0
  8  9  2  0  0  0  0
  9 10  1  0  0  0  0
 10 11  1  0  0  0  0
 11 12  1  0  0  0  0
 11 30  1  0  0  0  0
 12 17  2  0  0  0  0
 12 13  1  0  0  0  0
 13 14  2  0  0  0  0
 13 31  1  0  0  0  0
 14 15  1  0  0  0  0
 14 32  1  0  0  0  0
 15 16  2  0  0  0  0
 15 18  1  0  0  0  0
 16 17  1  0  0  0  0
 16 33  1  0  0  0  0
 17 34  1  0  0  0  0
 19 20  1  0  0  0  0
 19 35  1  0  0  0  0
 19 36  1  0  0  0  0
 20 25  2  0  0  0  0
 20 21  1  0  0  0  0
 21 22  2  0  0  0  0
 21 37  1  0  0  0  0
 22 23  1  0  0  0  0
 22 38  1  0  0  0  0
 23 24  2  0  0  0  0
 24 25  1  0  0  0  0
 24 39  1  0  0  0  0
 25 40  1  0  0  0  0
M  END
$$$$
ZINC00007582
  -OEChem-08230709403D

 27 30  0     0  0  0  0  0  0999 V2000
    1.1766    1.7842    0.0004 C   0  0  0  0  0  0  0  0  0  0  0  0
    1.1606    3.1678    0.0075 C   0  0  0  0  0  0  0  0  0  0  0  0
   -0.0378    3.8500    0.0217 C   0  0  0  0  0  0  0  0  0  0  0  0
   -1.2425    3.1421    0.0294 C   0  0  0  0  0  0  0  0  0  0  0  0
   -1.2145    1.7482    0.0173 C   0  0  0  0  0  0  0  0  0  0  0  0
   -0.0126    1.0758    0.0080 C   0  0  0  0  0  0  0  0  0  0  0  0
   -2.6486    1.2789    0.0335 C   0  0  0  0  0  0  0  0  0  0  0  0
   -3.4901    2.5320    0.0464 C   0  0  0  0  0  0  0  0  0  0  0  0
   -2.6487    3.6023    0.0439 C   0  0  0  0  0  0  0  0  0  0  0  0
   -3.4230    4.7292    0.0556 N   0  0  0  0  0  0  0  0  0  0  0  0
   -3.0888    5.6717    0.0569 H   0  0  0  0  0  0  0  0  0  0  0  0
   -4.7656    4.3326    0.0654 N   0  0  0  0  0  0  0  0  0  0  0  0
   -4.8103    3.0151    0.0599 C   0  0  0  0  0  0  0  0  0  0  0  0
   -6.0370    2.1883    0.0668 C   0  0  0  0  0  0  0  0  0  0  0  0
   -7.2314    2.4226    0.6926 C   0  0  0  0  0  0  0  0  0  0  0  0
   -8.2460    1.5005    0.5506 C   0  0  0  0  0  0  0  0  0  0  0  0
   -8.0275    0.3864   -0.1931 C   0  0  0  0  0  0  0  0  0  0  0  0
   -6.3421    0.6214   -0.7328 S   0  0  0  0  0  0  0  0  0  0  0  0
    2.1185    1.2561   -0.0107 H   0  0  0  0  0  0  0  0  0  0  0  0
    2.0911    3.7160    0.0016 H   0  0  0  0  0  0  0  0  0  0  0  0
   -0.0452    4.9300    0.0264 H   0  0  0  0  0  0  0  0  0  0  0  0
    0.0021   -0.0041    0.0020 H   0  0  0  0  0  0  0  0  0  0  0  0
   -2.8439    0.6854    0.9267 H   0  0  0  0  0  0  0  0  0  0  0  0
   -2.8593    0.6934   -0.8615 H   0  0  0  0  0  0  0  0  0  0  0  0
   -7.3773    3.3148    1.2836 H   0  0  0  0  0  0  0  0  0  0  0  0
   -9.2009    1.6600    1.0291 H   0  0  0  0  0  0  0  0  0  0  0  0
   -8.7001   -0.4318   -0.4041 H   0  0  0  0  0  0  0  0  0  0  0  0
  1  6  2  0  0  0  0
  1  2  1  0  0  0  0
  1 19  1  0  0  0  0
  2  3  2  0  0  0  0
  2 20  1  0  0  0  0
  3  4  1  0  0  0  0
  3 21  1  0  0  0  0
  4  9  1  0  0  0  0
  4  5  2  0  0  0  0
  5  6  1  0  0  0  0
  5  7  1  0  0  0  0
  6 22  1  0  0  0  0
  7  8  1  0  0  0  0
  7 23  1  0  0  0  0
  7 24  1  0  0  0  0
  8 13  1  0  0  0  0
  8  9  2  0  0  0  0
  9 10  1  0  0  0  0
 10 11  1  0  0  0  0
 10 12  1  0  0  0  0
 12 13  2  0  0  0  0
 13 14  1  0  0  0  0
 14 18  1  0  0  0  0
 14 15  2  0  0  0  0
 15 16  1  0  0  0  0
 15 25  1  0  0  0  0
 16 17  2  0  0  0  0
 16 26  1  0  0  0  0
 17 18  1  0  0  0  0
 17 27  1  0  0  0  0
M  END
$$$$
ZINC00008576
  -OEChem-08230709403D

 30 33  0     0  0  0  0  0  0999 V2000
    3.2306   -1.2283    2.8333 C   0  0  0  0  0  0  0  0  0  0  0  0
    2.2072   -2.1057    2.5174 C   0  0  0  0  0  0  0  0  0  0  0  0
    1.2727   -1.7733    1.5559 C   0  0  0  0  0  0  0  0  0  0  0  0
    1.3540   -0.5520    0.9012 C   0  0  0  0  0  0  0  0  0  0  0  0
    2.3853    0.3411    1.2259 C   0  0  0  0  0  0  0  0  0  0  0  0
    3.3246   -0.0089    2.1935 C   0  0  0  0  0  0  0  0  0  0  0  0
    2.4652    1.6495    0.5455 C   0  0  0  0  0  0  0  0  0  0  0  0
    1.4247    2.2572   -0.1016 C   0  0  0  0  0  0  0  0  0  0  0  0
    1.8882    3.4766   -0.6109 C   0  0  0  0  0  0  0  0  0  0  0  0
    3.1606    3.6011   -0.2873 N   0  0  0  0  0  0  0  0  0  0  0  0
    3.5474    2.4661    0.4393 N   0  0  0  0  0  0  0  0  0  0  0  0
    4.4577    2.2885    0.8132 H   0  0  0  0  0  0  0  0  0  0  0  0
    1.0862    4.4591   -1.3812 C   0  0  0  0  0  0  0  0  0  0  0  0
    1.6282    5.1179   -2.4882 C   0  0  0  0  0  0  0  0  0  0  0  0
    0.8461    6.0201   -3.1793 C   0  0  0  0  0  0  0  0  0  0  0  0
   -0.3928    6.2711   -2.8013 N   0  0  0  0  0  0  0  0  0  0  0  0
   -0.9403    5.6748   -1.7595 C   0  0  0  0  0  0  0  0  0  0  0  0
   -0.2300    4.7551   -1.0159 C   0  0  0  0  0  0  0  0  0  0  0  0
    0.0378    1.6779   -0.2216 C   0  0  0  0  0  0  0  0  0  0  0  0
    0.1675   -0.1302   -0.3311 S   0  0  0  0  0  0  0  0  0  0  0  0
    3.9585   -1.4991    3.5838 H   0  0  0  0  0  0  0  0  0  0  0  0
    2.1390   -3.0560    3.0260 H   0  0  0  0  0  0  0  0  0  0  0  0
    0.4784   -2.4638    1.3138 H   0  0  0  0  0  0  0  0  0  0  0  0
    4.1248    0.6724    2.4422 H   0  0  0  0  0  0  0  0  0  0  0  0
    2.6432    4.9208   -2.8002 H   0  0  0  0  0  0  0  0  0  0  0  0
    1.2550    6.5313   -4.0383 H   0  0  0  0  0  0  0  0  0  0  0  0
   -1.9580    5.9101   -1.4850 H   0  0  0  0  0  0  0  0  0  0  0  0
   -0.6845    4.2708   -0.1642 H   0  0  0  0  0  0  0  0  0  0  0  0
   -0.4433    2.0649   -1.1199 H   0  0  0  0  0  0  0  0  0  0  0  0
   -0.5490    1.9498    0.6558 H   0  0  0  0  0  0  0  0  0  0  0  0
  1  6  2  0  0  0  0
  1  2  1  0  0  0  0
  1 21  1  0  0  0  0
  2  3  2  0  0  0  0
  2 22  1  0  0  0  0
  3  4  1  0  0  0  0
  3 23  1  0  0  0  0
  4 20  1  0  0  0  0
  4  5  2  0  0  0  0
  5  6  1  0  0  0  0
  5  7  1  0  0  0  0
  6 24  1  0  0  0  0
  7 11  1  0  0  0  0
  7  8  2  0  0  0  0
  8  9  1  0  0  0  0
  8 19  1  0  0  0  0
  9 10  2  0  0  0  0
  9 13  1  0  0  0  0
 10 11  1  0  0  0  0
 11 12  1  0  0  0  0
 13 18  2  0  0  0  0
 13 14  1  0  0  0  0
 14 15  2  0  0  0  0
 14 25  1  0  0  0  0
 15 16  1  0  0  0  0
 15 26  1  0  0  0  0
 16 17  2  0  0  0  0
 17 18  1  0  0  0  0
 17 27  1  0  0  0  0
 18 28  1  0  0  0  0
 19 20  1  0  0  0  0
 19 29  1  0  0  0  0
 19 30  1  0  0  0  0
M  END
$$$$
ZINC00008981
  -OEChem-08230709403D

 37 42  0     0  0  0  0  0  0999 V2000
    3.7583    8.4401    0.0090 C   0  0  0  0  0  0  0  0  0  0  0  0
    2.4686    8.9409    0.0226 C   0  0  0  0  0  0  0  0  0  0  0  0
    1.3898    8.0820    0.0286 C   0  0  0  0  0  0  0  0  0  0  0  0
    1.5988    6.7005    0.0205 C   0  0  0  0  0  0  0  0  0  0  0  0
    2.9007    6.2062    0.0063 C   0  0  0  0  0  0  0  0  0  0  0  0
    3.9728    7.0730    0.0013 C   0  0  0  0  0  0  0  0  0  0  0  0
    2.8137    4.7000   -0.0002 C   0  0  0  0  0  0  0  0  0  0  0  0
    1.3407    4.3665    0.0115 C   0  0  0  0  0  0  0  0  0  0  0  0
    0.6399    5.5695    0.0237 C   0  0  0  0  0  0  0  0  0  0  0  0
   -0.7658    5.5617    0.0368 C   0  0  0  0  0  0  0  0  0  0  0  0
   -1.4577    4.3381    0.0375 C   0  0  0  0  0  0  0  0  0  0  0  0
   -2.8919    4.6716    0.0521 C   0  0  0  0  0  0  0  0  0  0  0  0
   -4.0557    3.9044    0.0591 C   0  0  0  0  0  0  0  0  0  0  0  0
   -5.2851    4.5266    0.0727 C   0  0  0  0  0  0  0  0  0  0  0  0
   -5.3678    5.9108    0.0797 C   0  0  0  0  0  0  0  0  0  0  0  0
   -4.2253    6.6818    0.0733 C   0  0  0  0  0  0  0  0  0  0  0  0
   -2.9742    6.0729    0.0592 C   0  0  0  0  0  0  0  0  0  0  0  0
   -1.6894    6.5848    0.0498 N   0  0  0  0  0  0  0  0  0  0  0  0
   -1.4696    7.5296    0.0526 H   0  0  0  0  0  0  0  0  0  0  0  0
   -0.7468    3.1356    0.0252 C   0  0  0  0  0  0  0  0  0  0  0  0
    0.6626    3.1570    0.0121 C   0  0  0  0  0  0  0  0  0  0  0  0
    1.0872    1.7423    0.0010 C   0  0  0  0  0  0  0  0  0  0  0  0
    2.2356    1.3466   -0.0117 O   0  0  0  0  0  0  0  0  0  0  0  0
   -0.0111    0.9658    0.0074 N   0  0  0  0  0  0  0  0  0  0  0  0
   -1.1300    1.7121    0.0162 C   0  0  0  0  0  0  0  0  0  0  0  0
   -2.2672    1.2842    0.0191 O   0  0  0  0  0  0  0  0  0  0  0  0
    4.5993    9.1175    0.0047 H   0  0  0  0  0  0  0  0  0  0  0  0
    2.3061   10.0086    0.0289 H   0  0  0  0  0  0  0  0  0  0  0  0
    0.3845    8.4766    0.0400 H   0  0  0  0  0  0  0  0  0  0  0  0
    4.9806    6.6849   -0.0089 H   0  0  0  0  0  0  0  0  0  0  0  0
    3.2978    4.2924    0.8873 H   0  0  0  0  0  0  0  0  0  0  0  0
    3.2817    4.3010   -0.9002 H   0  0  0  0  0  0  0  0  0  0  0  0
   -3.9941    2.8262    0.0536 H   0  0  0  0  0  0  0  0  0  0  0  0
   -6.1879    3.9338    0.0775 H   0  0  0  0  0  0  0  0  0  0  0  0
   -6.3361    6.3891    0.0900 H   0  0  0  0  0  0  0  0  0  0  0  0
   -4.3011    7.7591    0.0789 H   0  0  0  0  0  0  0  0  0  0  0  0
    0.0021   -0.0041    0.0020 H   0  0  0  0  0  0  0  0  0  0  0  0
  1  6  2  0  0  0  0
  1  2  1  0  0  0  0
  1 27  1  0  0  0  0
  2  3  2  0  0  0  0
  2 28  1  0  0  0  0
  3  4  1  0  0  0  0
  3 29  1  0  0  0  0
  4  9  1  0  0  0  0
  4  5  2  0  0  0  0
  5  6  1  0  0  0  0
  5  7  1  0  0  0  0
  6 30  1  0  0  0  0
  7  8  1  0  0  0  0
  7 31  1  0  0  0  0
  7 32  1  0  0  0  0
  8 21  2  0  0  0  0
  8  9  1  0  0  0  0
  9 10  2  0  0  0  0
 10 18  1  0  0  0  0
 10 11  1  0  0  0  0
 11 12  1  0  0  0  0
 11 20  2  0  0  0  0
 12 17  2  0  0  0  0
 12 13  1  0  0  0  0
 13 14  2  0  0  0  0
 13 33  1  0  0  0  0
 14 15  1  0  0  0  0
 14 34  1  0  0  0  0
 15 16  2  0  0  0  0
 15 35  1  0  0  0  0
 16 17  1  0  0  0  0
 16 36  1  0  0  0  0
 17 18  1  0  0  0  0
 18 19  1  0  0  0  0
 20 25  1  0  0  0  0
 20 21  1  0  0  0  0
 21 22  1  0  0  0  0
 22 23  2  0  0  0  0
 22 24  1  0  0  0  0
 24 25  1  0  0  0  0
 24 37  1  0  0  0  0
 25 26  2  0  0  0  0
M  END
$$$$
ZINC00023575
  -OEChem-08230709403D

 32 35  0     0  0  0  0  0  0999 V2000
    1.1740    2.0825    0.0020 C   0  0  0  0  0  0  0  0  0  0  0  0
   -0.0167    1.3775    0.0096 C   0  0  0  0  0  0  0  0  0  0  0  0
    0.0021   -0.0041    0.0020 C   0  0  0  0  0  0  0  0  0  0  0  0
    1.2169   -0.6740   -0.0144 C   0  0  0  0  0  0  0  0  0  0  0  0
    2.4226    0.0366   -0.0508 C   0  0  0  0  0  0  0  0  0  0  0  0
    2.3858    1.4176   -0.0280 C   0  0  0  0  0  0  0  0  0  0  0  0
    3.7418   -0.6792   -0.1352 C   0  0  0  0  0  0  0  0  0  0  0  0
    3.7406   -2.0051    0.6231 C   0  0  0  0  0  0  0  0  0  0  0  0
    2.4908   -2.7768    0.2929 C   0  0  0  0  0  0  0  0  0  0  0  0
    1.3013   -2.1483    0.0060 C   0  0  0  0  0  0  0  0  0  0  0  0
    0.3741   -3.1010   -0.2205 N   0  0  0  0  0  0  0  0  0  0  0  0
   -0.5887   -2.9459   -0.4416 H   0  0  0  0  0  0  0  0  0  0  0  0
    1.0033   -4.3506   -0.0901 N   0  0  0  0  0  0  0  0  0  0  0  0
    2.2733   -4.1510    0.2162 C   0  0  0  0  0  0  0  0  0  0  0  0
    3.2914   -5.2072    0.4393 C   0  0  0  0  0  0  0  0  0  0  0  0
    4.6194   -5.0186    0.0466 C   0  0  0  0  0  0  0  0  0  0  0  0
    5.5348   -6.0247    0.2770 C   0  0  0  0  0  0  0  0  0  0  0  0
    5.1685   -7.1554    0.8498 N   0  0  0  0  0  0  0  0  0  0  0  0
    3.9246   -7.3753    1.2307 C   0  0  0  0  0  0  0  0  0  0  0  0
    2.9471   -6.4201    1.0425 C   0  0  0  0  0  0  0  0  0  0  0  0
    1.1565    3.1622    0.0195 H   0  0  0  0  0  0  0  0  0  0  0  0
   -0.9585    1.9060    0.0170 H   0  0  0  0  0  0  0  0  0  0  0  0
   -0.9241   -0.5596    0.0084 H   0  0  0  0  0  0  0  0  0  0  0  0
    3.3077    1.9802   -0.0332 H   0  0  0  0  0  0  0  0  0  0  0  0
    4.5182   -0.0367    0.2802 H   0  0  0  0  0  0  0  0  0  0  0  0
    3.9712   -0.8730   -1.1830 H   0  0  0  0  0  0  0  0  0  0  0  0
    3.7738   -1.8100    1.6949 H   0  0  0  0  0  0  0  0  0  0  0  0
    4.6144   -2.5890    0.3340 H   0  0  0  0  0  0  0  0  0  0  0  0
    4.9253   -4.0972   -0.4266 H   0  0  0  0  0  0  0  0  0  0  0  0
    6.5642   -5.8866   -0.0192 H   0  0  0  0  0  0  0  0  0  0  0  0
    3.6681   -8.3157    1.6956 H   0  0  0  0  0  0  0  0  0  0  0  0
    1.9309   -6.6066    1.3570 H   0  0  0  0  0  0  0  0  0  0  0  0
  1  6  2  0  0  0  0
  1  2  1  0  0  0  0
  1 21  1  0  0  0  0
  2  3  2  0  0  0  0
  2 22  1  0  0  0  0
  3  4  1  0  0  0  0
  3 23  1  0  0  0  0
  4 10  1  0  0  0  0
  4  5  2  0  0  0  0
  5  6  1  0  0  0  0
  5  7  1  0  0  0  0
  6 24  1  0  0  0  0
  7  8  1  0  0  0  0
  7 25  1  0  0  0  0
  7 26  1  0  0  0  0
  8  9  1  0  0  0  0
  8 27  1  0  0  0  0
  8 28  1  0  0  0  0
  9 14  1  0  0  0  0
  9 10  2  0  0  0  0
 10 11  1  0  0  0  0
 11 12  1  0  0  0  0
 11 13  1  0  0  0  0
 13 14  2  0  0  0  0
 14 15  1  0  0  0  0
 15 20  2  0  0  0  0
 15 16  1  0  0  0  0
 16 17  2  0  0  0  0
 16 29  1  0  0  0  0
 17 18  1  0  0  0  0
 17 30  1  0  0  0  0
 18 19  2  0  0  0  0
 19 20  1  0  0  0  0
 19 31  1  0  0  0  0
 20 32  1  0  0  0  0
M  END
$$$$
ZINC00026943
  -OEChem-08230709403D

 35 38  0     0  0  0  0  0  0999 V2000
   -6.5797    9.7102    4.7871 C   0  0  0  0  0  0  0  0  0  0  0  0
   -5.2576    9.3273    5.1711 O   0  0  0  0  0  0  0  0  0  0  0  0
   -4.6777    8.3204    4.4665 C   0  0  0  0  0  0  0  0  0  0  0  0
   -3.3945    7.8996    4.7880 C   0  0  0  0  0  0  0  0  0  0  0  0
   -2.8034    6.8778    4.0746 C   0  0  0  0  0  0  0  0  0  0  0  0
   -3.4956    6.2678    3.0301 C   0  0  0  0  0  0  0  0  0  0  0  0
   -4.7817    6.6961    2.7062 C   0  0  0  0  0  0  0  0  0  0  0  0
   -5.3695    7.7150    3.4263 C   0  0  0  0  0  0  0  0  0  0  0  0
   -2.8622    5.1686    2.2602 C   0  0  0  0  0  0  0  0  0  0  0  0
   -1.5571    4.7325    2.5788 C   0  0  0  0  0  0  0  0  0  0  0  0
   -1.0029    3.7606    1.8953 N   0  0  0  0  0  0  0  0  0  0  0  0
   -1.6573    3.1615    0.8940 C   0  0  0  0  0  0  0  0  0  0  0  0
   -1.3027    2.1283    0.0198 C   0  0  0  0  0  0  0  0  0  0  0  0
   -2.3856    1.9195   -0.8379 C   0  0  0  0  0  0  0  0  0  0  0  0
   -3.3425    2.7624   -0.5273 N   0  0  0  0  0  0  0  0  0  0  0  0
   -2.9245    3.5569    0.5461 N   0  0  0  0  0  0  0  0  0  0  0  0
   -3.5344    4.5657    1.2349 C   0  0  0  0  0  0  0  0  0  0  0  0
   -0.0168    1.3870    0.0097 C   0  0  0  0  0  0  0  0  0  0  0  0
    0.0021   -0.0041    0.0020 C   0  0  0  0  0  0  0  0  0  0  0  0
    1.1939   -0.6440   -0.0128 C   0  0  0  0  0  0  0  0  0  0  0  0
    2.3519    0.7141   -0.0166 S   0  0  0  0  0  0  0  0  0  0  0  0
    1.1746    2.0557    0.0019 C   0  0  0  0  0  0  0  0  0  0  0  0
   -6.9236   10.5219    5.4282 H   0  0  0  0  0  0  0  0  0  0  0  0
   -6.5743   10.0442    3.7495 H   0  0  0  0  0  0  0  0  0  0  0  0
   -7.2497    8.8567    4.8906 H   0  0  0  0  0  0  0  0  0  0  0  0
   -2.8587    8.3724    5.5977 H   0  0  0  0  0  0  0  0  0  0  0  0
   -1.8049    6.5511    4.3249 H   0  0  0  0  0  0  0  0  0  0  0  0
   -5.3188    6.2282    1.8945 H   0  0  0  0  0  0  0  0  0  0  0  0
   -6.3677    8.0445    3.1785 H   0  0  0  0  0  0  0  0  0  0  0  0
   -1.0145    5.2008    3.3867 H   0  0  0  0  0  0  0  0  0  0  0  0
   -2.4284    1.1842   -1.6278 H   0  0  0  0  0  0  0  0  0  0  0  0
   -4.5332    4.8825    0.9730 H   0  0  0  0  0  0  0  0  0  0  0  0
   -0.9210   -0.5647    0.0075 H   0  0  0  0  0  0  0  0  0  0  0  0
    1.3936   -1.7053   -0.0204 H   0  0  0  0  0  0  0  0  0  0  0  0
    1.3568    3.1202    0.0062 H   0  0  0  0  0  0  0  0  0  0  0  0
  1  2  1  0  0  0  0
  1 23  1  0  0  0  0
  1 24  1  0  0  0  0
  1 25  1  0  0  0  0
  2  3  1  0  0  0  0
  3  8  2  0  0  0  0
  3  4  1  0  0  0  0
  4  5  2  0  0  0  0
  4 26  1  0  0  0  0
  5  6  1  0  0  0  0
  5 27  1  0  0  0  0
  6  7  2  0  0  0  0
  6  9  1  0  0  0  0
  7  8  1  0  0  0  0
  7 28  1  0  0  0  0
  8 29  1  0  0  0  0
  9 17  2  0  0  0  0
  9 10  1  0  0  0  0
 10 11  2  0  0  0  0
 10 30  1  0  0  0  0
 11 12  1  0  0  0  0
 12 16  1  0  0  0  0
 12 13  2  0  0  0  0
 13 14  1  0  0  0  0
 13 18  1  0  0  0  0
 14 15  2  0  0  0  0
 14 31  1  0  0  0  0
 15 16  1  0  0  0  0
 16 17  1  0  0  0  0
 17 32  1  0  0  0  0
 18 22  2  0  0  0  0
 18 19  1  0  0  0  0
 19 20  2  0  0  0  0
 19 33  1  0  0  0  0
 20 21  1  0  0  0  0
 20 34  1  0  0  0  0
 21 22  1  0  0  0  0
 22 35  1  0  0  0  0
M  END
$$$$
ZINC01493842
  -OEChem-08230709403D

 44 47  0     0  0  0  0  0  0999 V2000
    2.4496    4.0084   -0.1511 C   0  0  0  0  0  0  0  0  0  0  0  0
    3.6233    3.2738    0.0006 C   0  0  0  0  0  0  0  0  0  0  0  0
    3.6055    1.9100   -0.0048 C   0  0  0  0  0  0  0  0  0  0  0  0
    2.3885    1.2398   -0.1654 C   0  0  0  0  0  0  0  0  0  0  0  0
    1.1920    1.9874   -0.3201 C   0  0  0  0  0  0  0  0  0  0  0  0
    1.2466    3.3871   -0.3098 C   0  0  0  0  0  0  0  0  0  0  0  0
   -0.0105    1.2740   -0.4784 C   0  0  0  0  0  0  0  0  0  0  0  0
    0.0208   -0.0389   -0.4769 N   0  0  0  0  0  0  0  0  0  0  0  0
    1.0963   -0.7205   -0.3380 N   0  0  0  0  0  0  0  0  0  0  0  0
    2.2878   -0.1700   -0.1814 C   0  0  0  0  0  0  0  0  0  0  0  0
    3.4169   -0.9601   -0.0362 N   0  0  0  0  0  0  0  0  0  0  0  0
    3.2903   -2.3488    0.0626 C   0  0  0  0  0  0  0  0  0  0  0  0
    2.1774   -2.9038    0.6815 C   0  0  0  0  0  0  0  0  0  0  0  0
    2.0520   -4.2762    0.7721 C   0  0  0  0  0  0  0  0  0  0  0  0
    3.0394   -5.0980    0.2577 C   0  0  0  0  0  0  0  0  0  0  0  0
    4.1522   -4.5477   -0.3539 C   0  0  0  0  0  0  0  0  0  0  0  0
    4.2799   -3.1762   -0.4529 C   0  0  0  0  0  0  0  0  0  0  0  0
    2.8816   -6.8226    0.3793 Cl  0  0  0  0  0  0  0  0  0  0  0  0
   -1.3158    2.0066   -0.6534 C   0  0  0  0  0  0  0  0  0  0  0  0
   -1.9414    2.2478    0.6962 C   0  0  0  0  0  0  0  0  0  0  0  0
   -1.6621    3.4023    1.4109 C   0  0  0  0  0  0  0  0  0  0  0  0
   -2.2534    3.5944    2.6491 C   0  0  0  0  0  0  0  0  0  0  0  0
   -3.0731    2.6975    3.1527 N   0  0  0  0  0  0  0  0  0  0  0  0
   -3.3668    1.5792    2.5011 C   0  0  0  0  0  0  0  0  0  0  0  0
   -2.8135    1.3231    1.2485 C   0  0  0  0  0  0  0  0  0  0  0  0
   -4.2955    0.5974    3.1086 C   0  0  0  0  0  0  0  0  0  0  0  0
   -4.5680   -0.4282    2.5165 O   0  0  0  0  0  0  0  0  0  0  0  0
   -4.8381    0.8418    4.3179 N   0  0  0  0  0  0  0  0  0  0  0  0
    2.4934    5.0875   -0.1433 H   0  0  0  0  0  0  0  0  0  0  0  0
    4.5625    3.7924    0.1242 H   0  0  0  0  0  0  0  0  0  0  0  0
    4.5229    1.3527    0.1142 H   0  0  0  0  0  0  0  0  0  0  0  0
    0.3440    3.9686   -0.4261 H   0  0  0  0  0  0  0  0  0  0  0  0
    4.2951   -0.5495   -0.0030 H   0  0  0  0  0  0  0  0  0  0  0  0
    1.4088   -2.2628    1.0874 H   0  0  0  0  0  0  0  0  0  0  0  0
    1.1846   -4.7083    1.2489 H   0  0  0  0  0  0  0  0  0  0  0  0
    4.9213   -5.1915   -0.7545 H   0  0  0  0  0  0  0  0  0  0  0  0
    5.1482   -2.7473   -0.9309 H   0  0  0  0  0  0  0  0  0  0  0  0
   -1.1330    2.9620   -1.1452 H   0  0  0  0  0  0  0  0  0  0  0  0
   -1.9901    1.4065   -1.2645 H   0  0  0  0  0  0  0  0  0  0  0  0
   -0.9904    4.1450    1.0063 H   0  0  0  0  0  0  0  0  0  0  0  0
   -2.0380    4.4927    3.2086 H   0  0  0  0  0  0  0  0  0  0  0  0
   -3.0574    0.4150    0.7174 H   0  0  0  0  0  0  0  0  0  0  0  0
   -4.6206    1.6605    4.7906 H   0  0  0  0  0  0  0  0  0  0  0  0
   -5.4460    0.1990    4.7156 H   0  0  0  0  0  0  0  0  0  0  0  0
  1  6  2  0  0  0  0
  1  2  1  0  0  0  0
  1 29  1  0  0  0  0
  2  3  2  0  0  0  0
  2 30  1  0  0  0  0
  3  4  1  0  0  0  0
  3 31  1  0  0  0  0
  4 10  2  0  0  0  0
  4  5  1  0  0  0  0
  5  6  1  0  0  0  0
  5  7  2  0  0  0  0
  6 32  1  0  0  0  0
  7  8  1  0  0  0  0
  7 19  1  0  0  0  0
  8  9  2  0  0  0  0
  9 10  1  0  0  0  0
 10 11  1  0  0  0  0
 11 12  1  0  0  0  0
 11 33  1  0  0  0  0
 12 17  2  0  0  0  0
 12 13  1  0  0  0  0
 13 14  2  0  0  0  0
 13 34  1  0  0  0  0
 14 15  1  0  0  0  0
 14 35  1  0  0  0  0
 15 16  2  0  0  0  0
 15 18  1  0  0  0  0
 16 17  1  0  0  0  0
 16 36  1  0  0  0  0
 17 37  1  0  0  0  0
 19 20  1  0  0  0  0
 19 38  1  0  0  0  0
 19 39  1  0  0  0  0
 20 25  2  0  0  0  0
 20 21  1  0  0  0  0
 21 22  2  0  0  0  0
 21 40  1  0  0  0  0
 22 23  1  0  0  0  0
 22 41  1  0  0  0  0
 23 24  2  0  0  0  0
 24 25  1  0  0  0  0
 24 26  1  0  0  0  0
 25 42  1  0  0  0  0
 26 27  2  0  0  0  0
 26 28  1  0  0  0  0
 28 43  1  0  0  0  0
 28 44  1  0  0  0  0
M  END
$$$$
ZINC01493965
  -OEChem-08230709403D

 38 41  0     0  0  0  0  0  0999 V2000
    9.8160   -1.9038   -0.7664 C   0  0  0  0  0  0  0  0  0  0  0  0
   10.5245   -2.1600    0.3910 C   0  0  0  0  0  0  0  0  0  0  0  0
    9.8531   -2.4716    1.5603 C   0  0  0  0  0  0  0  0  0  0  0  0
    8.4702   -2.5218    1.5748 C   0  0  0  0  0  0  0  0  0  0  0  0
    7.7563   -2.2609    0.4218 C   0  0  0  0  0  0  0  0  0  0  0  0
    8.4277   -1.9479   -0.7534 C   0  0  0  0  0  0  0  0  0  0  0  0
    7.7077   -1.6833   -1.9220 N   0  0  0  0  0  0  0  0  0  0  0  0
    6.4913   -1.0105   -1.8526 C   0  0  0  0  0  0  0  0  0  0  0  0
    5.6979   -0.8471   -3.0238 C   0  0  0  0  0  0  0  0  0  0  0  0
    5.9352   -1.2826   -4.3856 C   0  0  0  0  0  0  0  0  0  0  0  0
    5.0227   -1.0036   -5.3320 C   0  0  0  0  0  0  0  0  0  0  0  0
    3.7564   -0.1188   -4.4405 S   0  0  0  0  0  0  0  0  0  0  0  0
    4.4834   -0.1530   -2.8265 C   0  0  0  0  0  0  0  0  0  0  0  0
    4.1421    0.3211   -1.5709 C   0  0  0  0  0  0  0  0  0  0  0  0
    4.9648    0.1064   -0.5564 N   0  0  0  0  0  0  0  0  0  0  0  0
    6.0709   -0.5242   -0.7049 N   0  0  0  0  0  0  0  0  0  0  0  0
    2.9767    0.9924   -1.3819 O   0  0  0  0  0  0  0  0  0  0  0  0
    2.6956    1.4434   -0.0554 C   0  0  0  0  0  0  0  0  0  0  0  0
    1.3708    2.1616   -0.0391 C   0  0  0  0  0  0  0  0  0  0  0  0
    0.1923    1.4716    0.2006 C   0  0  0  0  0  0  0  0  0  0  0  0
   -1.0045    2.1628    0.2017 C   0  0  0  0  0  0  0  0  0  0  0  0
   -1.0321    3.4639   -0.0110 N   0  0  0  0  0  0  0  0  0  0  0  0
    0.0686    4.1524   -0.2420 C   0  0  0  0  0  0  0  0  0  0  0  0
    1.3014    3.5280   -0.2640 C   0  0  0  0  0  0  0  0  0  0  0  0
   10.7472   -2.7996    3.0117 Cl  0  0  0  0  0  0  0  0  0  0  0  0
   10.3407   -1.6654   -1.6797 H   0  0  0  0  0  0  0  0  0  0  0  0
   11.6038   -2.1212    0.3827 H   0  0  0  0  0  0  0  0  0  0  0  0
    7.9487   -2.7649    2.4888 H   0  0  0  0  0  0  0  0  0  0  0  0
    6.6771   -2.2999    0.4338 H   0  0  0  0  0  0  0  0  0  0  0  0
    8.0559   -1.9686   -2.7812 H   0  0  0  0  0  0  0  0  0  0  0  0
    6.8349   -1.8246   -4.6370 H   0  0  0  0  0  0  0  0  0  0  0  0
    5.0499   -1.2549   -6.3820 H   0  0  0  0  0  0  0  0  0  0  0  0
    3.4818    2.1240    0.2713 H   0  0  0  0  0  0  0  0  0  0  0  0
    2.6531    0.5874    0.6181 H   0  0  0  0  0  0  0  0  0  0  0  0
    0.2089    0.4067    0.3798 H   0  0  0  0  0  0  0  0  0  0  0  0
   -1.9273    1.6319    0.3831 H   0  0  0  0  0  0  0  0  0  0  0  0
    0.0061    5.2164   -0.4162 H   0  0  0  0  0  0  0  0  0  0  0  0
    2.1993    4.0971   -0.4544 H   0  0  0  0  0  0  0  0  0  0  0  0
  1  6  2  0  0  0  0
  1  2  1  0  0  0  0
  1 26  1  0  0  0  0
  2  3  2  0  0  0  0
  2 27  1  0  0  0  0
  3  4  1  0  0  0  0
  3 25  1  0  0  0  0
  4  5  2  0  0  0  0
  4 28  1  0  0  0  0
  5  6  1  0  0  0  0
  5 29  1  0  0  0  0
  6  7  1  0  0  0  0
  7  8  1  0  0  0  0
  7 30  1  0  0  0  0
  8 16  2  0  0  0  0
  8  9  1  0  0  0  0
  9 13  2  0  0  0  0
  9 10  1  0  0  0  0
 10 11  2  0  0  0  0
 10 31  1  0  0  0  0
 11 12  1  0  0  0  0
 11 32  1  0  0  0  0
 12 13  1  0  0  0  0
 13 14  1  0  0  0  0
 14 15  2  0  0  0  0
 14 17  1  0  0  0  0
 15 16  1  0  0  0  0
 17 18  1  0  0  0  0
 18 19  1  0  0  0  0
 18 33  1  0  0  0  0
 18 34  1  0  0  0  0
 19 24  2  0  0  0  0
 19 20  1  0  0  0  0
 20 21  2  0  0  0  0
 20 35  1  0  0  0  0
 21 22  1  0  0  0  0
 21 36  1  0  0  0  0
 22 23  2  0  0  0  0
 23 24  1  0  0  0  0
 23 37  1  0  0  0  0
 24 38  1  0  0  0  0
M  END
$$$$
ZINC01494208
  -OEChem-08230709403D

 43 46  0     0  0  0  0  0  0999 V2000
   -2.6947    6.0887    8.5575 C   0  0  0  0  0  0  0  0  0  0  0  0
   -2.5471    7.4048    8.9527 C   0  0  0  0  0  0  0  0  0  0  0  0
   -3.5741    8.2319    8.9407 N   0  0  0  0  0  0  0  0  0  0  0  0
   -4.7725    7.8438    8.5504 C   0  0  0  0  0  0  0  0  0  0  0  0
   -4.9948    6.5439    8.1369 C   0  0  0  0  0  0  0  0  0  0  0  0
   -3.9389    5.6454    8.1358 C   0  0  0  0  0  0  0  0  0  0  0  0
   -4.1402    4.2191    7.6927 C   0  0  0  0  0  0  0  0  0  0  0  0
   -3.9002    4.1171    6.2512 N   0  0  0  0  0  0  0  0  0  0  0  0
   -4.0228    2.9273    5.6301 C   0  0  0  0  0  0  0  0  0  0  0  0
   -4.3328    1.9376    6.2669 O   0  0  0  0  0  0  0  0  0  0  0  0
   -3.7825    2.8251    4.1862 C   0  0  0  0  0  0  0  0  0  0  0  0
   -3.8776    1.6869    3.4374 C   0  0  0  0  0  0  0  0  0  0  0  0
   -3.5626    2.0374    2.1080 C   0  0  0  0  0  0  0  0  0  0  0  0
   -3.2943    3.3898    2.0958 C   0  0  0  0  0  0  0  0  0  0  0  0
   -3.4282    3.8612    3.3519 N   0  0  0  0  0  0  0  0  0  0  0  0
   -3.2959    4.7828    3.6242 H   0  0  0  0  0  0  0  0  0  0  0  0
   -3.5318    1.1262    0.9440 C   0  0  0  0  0  0  0  0  0  0  0  0
   -2.5364    1.0524   -0.0206 C   0  0  0  0  0  0  0  0  0  0  0  0
   -2.9173    0.0571   -0.9387 C   0  0  0  0  0  0  0  0  0  0  0  0
   -4.0630   -0.4417   -0.5585 N   0  0  0  0  0  0  0  0  0  0  0  0
   -4.4748    0.2002    0.6151 N   0  0  0  0  0  0  0  0  0  0  0  0
   -4.5655   -1.1662   -1.0304 H   0  0  0  0  0  0  0  0  0  0  0  0
   -1.3012    1.8707   -0.0734 C   0  0  0  0  0  0  0  0  0  0  0  0
   -1.0059    2.6187   -1.2120 C   0  0  0  0  0  0  0  0  0  0  0  0
    0.1433    3.3838   -1.2537 C   0  0  0  0  0  0  0  0  0  0  0  0
    1.0038    3.4044   -0.1696 C   0  0  0  0  0  0  0  0  0  0  0  0
    0.7179    2.6593    0.9614 C   0  0  0  0  0  0  0  0  0  0  0  0
   -0.4285    1.8905    1.0134 C   0  0  0  0  0  0  0  0  0  0  0  0
    1.8016    2.6917    2.3173 Cl  0  0  0  0  0  0  0  0  0  0  0  0
    0.5090    4.3216   -2.6681 Cl  0  0  0  0  0  0  0  0  0  0  0  0
   -1.8509    5.4149    8.5739 H   0  0  0  0  0  0  0  0  0  0  0  0
   -1.5805    7.7588    9.2794 H   0  0  0  0  0  0  0  0  0  0  0  0
   -5.5897    8.5499    8.5541 H   0  0  0  0  0  0  0  0  0  0  0  0
   -5.9786    6.2320    7.8190 H   0  0  0  0  0  0  0  0  0  0  0  0
   -5.1621    3.9108    7.9137 H   0  0  0  0  0  0  0  0  0  0  0  0
   -3.4425    3.5717    8.2239 H   0  0  0  0  0  0  0  0  0  0  0  0
   -3.6531    4.9059    5.7435 H   0  0  0  0  0  0  0  0  0  0  0  0
   -4.1417    0.7030    3.7962 H   0  0  0  0  0  0  0  0  0  0  0  0
   -3.0234    3.9725    1.2278 H   0  0  0  0  0  0  0  0  0  0  0  0
   -2.3567   -0.2439   -1.8114 H   0  0  0  0  0  0  0  0  0  0  0  0
   -1.6768    2.6035   -2.0582 H   0  0  0  0  0  0  0  0  0  0  0  0
    1.9011    4.0043   -0.2062 H   0  0  0  0  0  0  0  0  0  0  0  0
   -0.6507    1.3095    1.8962 H   0  0  0  0  0  0  0  0  0  0  0  0
  1  6  2  0  0  0  0
  1  2  1  0  0  0  0
  1 31  1  0  0  0  0
  2  3  2  0  0  0  0
  2 32  1  0  0  0  0
  3  4  1  0  0  0  0
  4  5  2  0  0  0  0
  4 33  1  0  0  0  0
  5  6  1  0  0  0  0
  5 34  1  0  0  0  0
  6  7  1  0  0  0  0
  7  8  1  0  0  0  0
  7 35  1  0  0  0  0
  7 36  1  0  0  0  0
  8  9  1  0  0  0  0
  8 37  1  0  0  0  0
  9 10  2  0  0  0  0
  9 11  1  0  0  0  0
 11 15  1  0  0  0  0
 11 12  2  0  0  0  0
 12 13  1  0  0  0  0
 12 38  1  0  0  0  0
 13 14  2  0  0  0  0
 13 17  1  0  0  0  0
 14 15  1  0  0  0  0
 14 39  1  0  0  0  0
 15 16  1  0  0  0  0
 17 18  1  0  0  0  0
 17 21  2  0  0  0  0
 18 23  1  0  0  0  0
 18 19  2  0  0  0  0
 19 40  1  0  0  0  0
 19 20  1  0  0  0  0
 20 22  1  0  0  0  0
 20 21  1  0  0  0  0
 23 28  2  0  0  0  0
 23 24  1  0  0  0  0
 24 25  2  0  0  0  0
 24 41  1  0  0  0  0
 25 26  1  0  0  0  0
 25 30  1  0  0  0  0
 26 27  2  0  0  0  0
 26 42  1  0  0  0  0
 27 28  1  0  0  0  0
 27 29  1  0  0  0  0
 28 43  1  0  0  0  0
M  END
$$$$
ZINC01494208
  -OEChem-08230709403D

 43 46  0     0  0  0  0  0  0999 V2000
   -2.6947    6.0887    8.5575 C   0  0  0  0  0  0  0  0  0  0  0  0
   -2.5471    7.4048    8.9527 C   0  0  0  0  0  0  0  0  0  0  0  0
   -3.5741    8.2319    8.9407 N   0  0  0  0  0  0  0  0  0  0  0  0
   -4.7725    7.8438    8.5504 C   0  0  0  0  0  0  0  0  0  0  0  0
   -4.9948    6.5439    8.1369 C   0  0  0  0  0  0  0  0  0  0  0  0
   -3.9389    5.6454    8.1358 C   0  0  0  0  0  0  0  0  0  0  0  0
   -4.1402    4.2191    7.6927 C   0  0  0  0  0  0  0  0  0  0  0  0
   -3.9002    4.1171    6.2512 N   0  0  0  0  0  0  0  0  0  0  0  0
   -4.0228    2.9273    5.6301 C   0  0  0  0  0  0  0  0  0  0  0  0
   -4.3328    1.9376    6.2669 O   0  0  0  0  0  0  0  0  0  0  0  0
   -3.7825    2.8251    4.1862 C   0  0  0  0  0  0  0  0  0  0  0  0
   -3.8776    1.6869    3.4374 C   0  0  0  0  0  0  0  0  0  0  0  0
   -3.5626    2.0374    2.1080 C   0  0  0  0  0  0  0  0  0  0  0  0
   -3.2943    3.3898    2.0958 C   0  0  0  0  0  0  0  0  0  0  0  0
   -3.4282    3.8612    3.3519 N   0  0  0  0  0  0  0  0  0  0  0  0
   -3.2959    4.7828    3.6242 H   0  0  0  0  0  0  0  0  0  0  0  0
   -3.5318    1.1262    0.9440 C   0  0  0  0  0  0  0  0  0  0  0  0
   -2.5364    1.0524   -0.0206 C   0  0  0  0  0  0  0  0  0  0  0  0
   -2.9173    0.0571   -0.9387 C   0  0  0  0  0  0  0  0  0  0  0  0
   -4.0630   -0.4417   -0.5585 N   0  0  0  0  0  0  0  0  0  0  0  0
   -4.4748    0.2002    0.6151 N   0  0  0  0  0  0  0  0  0  0  0  0
   -4.5655   -1.1662   -1.0304 H   0  0  0  0  0  0  0  0  0  0  0  0
   -1.3012    1.8707   -0.0734 C   0  0  0  0  0  0  0  0  0  0  0  0
   -1.0059    2.6187   -1.2120 C   0  0  0  0  0  0  0  0  0  0  0  0
    0.1433    3.3838   -1.2537 C   0  0  0  0  0  0  0  0  0  0  0  0
    1.0038    3.4044   -0.1696 C   0  0  0  0  0  0  0  0  0  0  0  0
    0.7179    2.6593    0.9614 C   0  0  0  0  0  0  0  0  0  0  0  0
   -0.4285    1.8905    1.0134 C   0  0  0  0  0  0  0  0  0  0  0  0
    1.8016    2.6917    2.3173 Cl  0  0  0  0  0  0  0  0  0  0  0  0
    0.5090    4.3216   -2.6681 Cl  0  0  0  0  0  0  0  0  0  0  0  0
   -1.8509    5.4149    8.5739 H   0  0  0  0  0  0  0  0  0  0  0  0
   -1.5805    7.7588    9.2794 H   0  0  0  0  0  0  0  0  0  0  0  0
   -5.5897    8.5499    8.5541 H   0  0  0  0  0  0  0  0  0  0  0  0
   -5.9786    6.2320    7.8190 H   0  0  0  0  0  0  0  0  0  0  0  0
   -5.1621    3.9108    7.9137 H   0  0  0  0  0  0  0  0  0  0  0  0
   -3.4425    3.5717    8.2239 H   0  0  0  0  0  0  0  0  0  0  0  0
   -3.6531    4.9059    5.7435 H   0  0  0  0  0  0  0  0  0  0  0  0
   -4.1417    0.7030    3.7962 H   0  0  0  0  0  0  0  0  0  0  0  0
   -3.0234    3.9725    1.2278 H   0  0  0  0  0  0  0  0  0  0  0  0
   -2.3567   -0.2439   -1.8114 H   0  0  0  0  0  0  0  0  0  0  0  0
   -1.6768    2.6035   -2.0582 H   0  0  0  0  0  0  0  0  0  0  0  0
    1.9011    4.0043   -0.2062 H   0  0  0  0  0  0  0  0  0  0  0  0
   -0.6507    1.3095    1.8962 H   0  0  0  0  0  0  0  0  0  0  0  0
  1  6  2  0  0  0  0
  1  2  1  0  0  0  0
  1 31  1  0  0  0  0
  2  3  2  0  0  0  0
  2 32  1  0  0  0  0
  3  4  1  0  0  0  0
  4  5  2  0  0  0  0
  4 33  1  0  0  0  0
  5  6  1  0  0  0  0
  5 34  1  0  0  0  0
  6  7  1  0  0  0  0
  7  8  1  0  0  0  0
  7 35  1  0  0  0  0
  7 36  1  0  0  0  0
  8  9  1  0  0  0  0
  8 37  1  0  0  0  0
  9 10  2  0  0  0  0
  9 11  1  0  0  0  0
 11 15  1  0  0  0  0
 11 12  2  0  0  0  0
 12 13  1  0  0  0  0
 12 38  1  0  0  0  0
 13 14  2  0  0  0  0
 13 17  1  0  0  0  0
 14 15  1  0  0  0  0
 14 39  1  0  0  0  0
 15 16  1  0  0  0  0
 17 18  1  0  0  0  0
 17 21  2  0  0  0  0
 18 23  1  0  0  0  0
 18 19  2  0  0  0  0
 19 40  1  0  0  0  0
 19 20  1  0  0  0  0
 20 22  1  0  0  0  0
 20 21  1  0  0  0  0
 23 28  2  0  0  0  0
 23 24  1  0  0  0  0
 24 25  2  0  0  0  0
 24 41  1  0  0  0  0
 25 26  1  0  0  0  0
 25 30  1  0  0  0  0
 26 27  2  0  0  0  0
 26 42  1  0  0  0  0
 27 28  1  0  0  0  0
 27 29  1  0  0  0  0
 28 43  1  0  0  0  0
M  END
$$$$
ZINC01494651
  -OEChem-08230709403D

 51 54  0     0  0  0  0  0  0999 V2000
   -0.0575    0.9465   -0.0505 C   0  0  0  0  0  0  0  0  0  0  0  0
   -0.6650    1.6260    1.1783 C   0  0  0  0  0  0  0  0  0  0  0  0
   -0.6105    3.0802    1.0091 N   0  0  0  0  0  0  0  0  0  0  0  0
   -1.6581    3.7341    0.4114 C   0  0  0  0  0  0  0  0  0  0  0  0
   -1.6213    5.1350    0.2407 C   0  0  0  0  0  0  0  0  0  0  0  0
   -0.5030    5.8766    0.6850 C   0  0  0  0  0  0  0  0  0  0  0  0
    0.5377    5.2155    1.2804 C   0  0  0  0  0  0  0  0  0  0  0  0
    0.4653    3.7624    1.4469 C   0  0  0  0  0  0  0  0  0  0  0  0
    1.3846    3.1669    1.9799 O   0  0  0  0  0  0  0  0  0  0  0  0
    1.7240    5.9643    1.7573 C   0  0  0  0  0  0  0  0  0  0  0  0
    2.9698    5.7466    1.1711 C   0  0  0  0  0  0  0  0  0  0  0  0
    4.0758    6.4520    1.6163 C   0  0  0  0  0  0  0  0  0  0  0  0
    3.9465    7.3669    2.6512 C   0  0  0  0  0  0  0  0  0  0  0  0
    2.7093    7.5820    3.2409 C   0  0  0  0  0  0  0  0  0  0  0  0
    1.5980    6.8841    2.7972 C   0  0  0  0  0  0  0  0  0  0  0  0
    2.5874    8.4789    4.2546 O   0  0  0  0  0  0  0  0  0  0  0  0
    3.7740    9.1631    4.6617 C   0  0  0  0  0  0  0  0  0  0  0  0
    5.2898    6.2441    1.0419 O   0  0  0  0  0  0  0  0  0  0  0  0
    6.3880    7.0018    1.5537 C   0  0  0  0  0  0  0  0  0  0  0  0
   -2.7134    5.7648   -0.3750 C   0  0  0  0  0  0  0  0  0  0  0  0
   -3.7307    5.0223   -0.7695 N   0  0  0  0  0  0  0  0  0  0  0  0
   -3.7308    3.7058   -0.5924 C   0  0  0  0  0  0  0  0  0  0  0  0
   -2.7238    3.0670   -0.0169 N   0  0  0  0  0  0  0  0  0  0  0  0
   -4.8222    2.9759   -1.0246 N   0  0  0  0  0  0  0  0  0  0  0  0
   -5.9440    3.6319   -1.5281 C   0  0  0  0  0  0  0  0  0  0  0  0
   -6.3298    4.8753   -1.0286 C   0  0  0  0  0  0  0  0  0  0  0  0
   -7.4433    5.4938   -1.5576 C   0  0  0  0  0  0  0  0  0  0  0  0
   -8.1455    4.9189   -2.5159 N   0  0  0  0  0  0  0  0  0  0  0  0
   -7.8158    3.7409   -3.0114 C   0  0  0  0  0  0  0  0  0  0  0  0
   -6.7132    3.0592   -2.5405 C   0  0  0  0  0  0  0  0  0  0  0  0
   -0.0981   -0.1355    0.0753 H   0  0  0  0  0  0  0  0  0  0  0  0
    0.9802    1.2604   -0.1635 H   0  0  0  0  0  0  0  0  0  0  0  0
   -0.6217    1.2304   -0.9389 H   0  0  0  0  0  0  0  0  0  0  0  0
   -1.7027    1.3121    1.2912 H   0  0  0  0  0  0  0  0  0  0  0  0
   -0.1008    1.3422    2.0666 H   0  0  0  0  0  0  0  0  0  0  0  0
   -0.4698    6.9484    0.5565 H   0  0  0  0  0  0  0  0  0  0  0  0
    3.0719    5.0317    0.3680 H   0  0  0  0  0  0  0  0  0  0  0  0
    4.8112    7.9127    2.9988 H   0  0  0  0  0  0  0  0  0  0  0  0
    0.6351    7.0520    3.2567 H   0  0  0  0  0  0  0  0  0  0  0  0
    4.5138    8.4376    4.9999 H   0  0  0  0  0  0  0  0  0  0  0  0
    4.1759    9.7261    3.8194 H   0  0  0  0  0  0  0  0  0  0  0  0
    3.5374    9.8475    5.4764 H   0  0  0  0  0  0  0  0  0  0  0  0
    7.2951    6.7403    1.0088 H   0  0  0  0  0  0  0  0  0  0  0  0
    6.1841    8.0655    1.4309 H   0  0  0  0  0  0  0  0  0  0  0  0
    6.5224    6.7774    2.6119 H   0  0  0  0  0  0  0  0  0  0  0  0
   -2.7213    6.8346   -0.5232 H   0  0  0  0  0  0  0  0  0  0  0  0
   -4.8073    2.0072   -0.9776 H   0  0  0  0  0  0  0  0  0  0  0  0
   -5.7623    5.3492   -0.2414 H   0  0  0  0  0  0  0  0  0  0  0  0
   -7.7471    6.4589   -1.1797 H   0  0  0  0  0  0  0  0  0  0  0  0
   -8.4173    3.3050   -3.7953 H   0  0  0  0  0  0  0  0  0  0  0  0
   -6.4494    2.0952   -2.9499 H   0  0  0  0  0  0  0  0  0  0  0  0
  1  2  1  0  0  0  0
  1 31  1  0  0  0  0
  1 32  1  0  0  0  0
  1 33  1  0  0  0  0
  2  3  1  0  0  0  0
  2 34  1  0  0  0  0
  2 35  1  0  0  0  0
  3  8  1  0  0  0  0
  3  4  1  0  0  0  0
  4 23  2  0  0  0  0
  4  5  1  0  0  0  0
  5  6  1  0  0  0  0
  5 20  2  0  0  0  0
  6  7  2  0  0  0  0
  6 36  1  0  0  0  0
  7  8  1  0  0  0  0
  7 10  1  0  0  0  0
  8  9  2  0  0  0  0
 10 15  2  0  0  0  0
 10 11  1  0  0  0  0
 11 12  2  0  0  0  0
 11 37  1  0  0  0  0
 12 13  1  0  0  0  0
 12 18  1  0  0  0  0
 13 14  2  0  0  0  0
 13 38  1  0  0  0  0
 14 15  1  0  0  0  0
 14 16  1  0  0  0  0
 15 39  1  0  0  0  0
 16 17  1  0  0  0  0
 17 40  1  0  0  0  0
 17 41  1  0  0  0  0
 17 42  1  0  0  0  0
 18 19  1  0  0  0  0
 19 43  1  0  0  0  0
 19 44  1  0  0  0  0
 19 45  1  0  0  0  0
 20 21  1  0  0  0  0
 20 46  1  0  0  0  0
 21 22  2  0  0  0  0
 22 23  1  0  0  0  0
 22 24  1  0  0  0  0
 24 25  1  0  0  0  0
 24 47  1  0  0  0  0
 25 30  2  0  0  0  0
 25 26  1  0  0  0  0
 26 27  2  0  0  0  0
 26 48  1  0  0  0  0
 27 28  1  0  0  0  0
 27 49  1  0  0  0  0
 28 29  2  0  0  0  0
 29 30  1  0  0  0  0
 29 50  1  0  0  0  0
 30 51  1  0  0  0  0
M  END
$$$$
ZINC01895097
  -OEChem-08230709403D

 43 45  0     0  0  0  0  0  0999 V2000
    2.6192    8.9970   -3.3123 C   0  0  0  0  0  0  0  0  0  0  0  0
    2.3300    7.6304   -3.0111 O   0  0  0  0  0  0  0  0  0  0  0  0
    1.4999    7.4517   -1.8617 C   0  0  0  0  0  0  0  0  0  0  0  0
    1.2571    5.9581   -1.6351 C   0  0  0  0  0  0  0  0  0  0  0  0
    2.4933    5.3183   -1.3119 O   0  0  0  0  0  0  0  0  0  0  0  0
    2.4529    3.9805   -1.0791 C   0  0  0  0  0  0  0  0  0  0  0  0
    1.2521    3.3106   -1.1613 C   0  0  0  0  0  0  0  0  0  0  0  0
    1.2134    1.9319   -0.9204 C   0  0  0  0  0  0  0  0  0  0  0  0
    2.4109    1.2477   -0.5954 C   0  0  0  0  0  0  0  0  0  0  0  0
    3.6183    1.9519   -0.5181 C   0  0  0  0  0  0  0  0  0  0  0  0
    3.6336    3.2968   -0.7573 C   0  0  0  0  0  0  0  0  0  0  0  0
    4.8070    3.9798   -0.6821 O   0  0  0  0  0  0  0  0  0  0  0  0
    5.9755    3.2274   -0.3496 C   0  0  0  0  0  0  0  0  0  0  0  0
    2.3401   -0.1455   -0.3564 C   0  0  0  0  0  0  0  0  0  0  0  0
    1.1571   -0.7388   -0.4490 N   0  0  0  0  0  0  0  0  0  0  0  0
    0.0642   -0.0581   -0.7557 C   0  0  0  0  0  0  0  0  0  0  0  0
    0.0693    1.2330   -0.9874 N   0  0  0  0  0  0  0  0  0  0  0  0
    3.4716   -0.8676   -0.0353 N   0  0  0  0  0  0  0  0  0  0  0  0
    3.4070   -2.2623    0.0639 C   0  0  0  0  0  0  0  0  0  0  0  0
    2.3544   -2.9532   -0.5209 C   0  0  0  0  0  0  0  0  0  0  0  0
    2.2928   -4.3297   -0.4216 C   0  0  0  0  0  0  0  0  0  0  0  0
    3.2789   -5.0212    0.2600 C   0  0  0  0  0  0  0  0  0  0  0  0
    4.3297   -4.3366    0.8449 C   0  0  0  0  0  0  0  0  0  0  0  0
    4.4002   -2.9592    0.7436 C   0  0  0  0  0  0  0  0  0  0  0  0
    5.4292   -2.2911    1.3093 F   0  0  0  0  0  0  0  0  0  0  0  0
    3.1971   -6.7509    0.3821 Cl  0  0  0  0  0  0  0  0  0  0  0  0
    3.1360    9.4536   -2.4682 H   0  0  0  0  0  0  0  0  0  0  0  0
    3.2536    9.0475   -4.1973 H   0  0  0  0  0  0  0  0  0  0  0  0
    1.6887    9.5322   -3.5013 H   0  0  0  0  0  0  0  0  0  0  0  0
    0.5461    7.9548   -2.0205 H   0  0  0  0  0  0  0  0  0  0  0  0
    1.9935    7.8762   -0.9875 H   0  0  0  0  0  0  0  0  0  0  0  0
    0.8451    5.5154   -2.5419 H   0  0  0  0  0  0  0  0  0  0  0  0
    0.5533    5.8250   -0.8135 H   0  0  0  0  0  0  0  0  0  0  0  0
    0.3472    3.8449   -1.4101 H   0  0  0  0  0  0  0  0  0  0  0  0
    4.5333    1.4344   -0.2703 H   0  0  0  0  0  0  0  0  0  0  0  0
    5.8432    2.7640    0.6281 H   0  0  0  0  0  0  0  0  0  0  0  0
    6.1349    2.4533   -1.1001 H   0  0  0  0  0  0  0  0  0  0  0  0
    6.8396    3.8912   -0.3230 H   0  0  0  0  0  0  0  0  0  0  0  0
   -0.8738   -0.5897   -0.8184 H   0  0  0  0  0  0  0  0  0  0  0  0
    4.3116   -0.4086    0.1217 H   0  0  0  0  0  0  0  0  0  0  0  0
    1.5843   -2.4149   -1.0534 H   0  0  0  0  0  0  0  0  0  0  0  0
    1.4740   -4.8670   -0.8769 H   0  0  0  0  0  0  0  0  0  0  0  0
    5.0977   -4.8788    1.3765 H   0  0  0  0  0  0  0  0  0  0  0  0
  1  2  1  0  0  0  0
  1 27  1  0  0  0  0
  1 28  1  0  0  0  0
  1 29  1  0  0  0  0
  2  3  1  0  0  0  0
  3  4  1  0  0  0  0
  3 30  1  0  0  0  0
  3 31  1  0  0  0  0
  4  5  1  0  0  0  0
  4 32  1  0  0  0  0
  4 33  1  0  0  0  0
  5  6  1  0  0  0  0
  6 11  2  0  0  0  0
  6  7  1  0  0  0  0
  7  8  2  0  0  0  0
  7 34  1  0  0  0  0
  8 17  1  0  0  0  0
  8  9  1  0  0  0  0
  9 10  2  0  0  0  0
  9 14  1  0  0  0  0
 10 11  1  0  0  0  0
 10 35  1  0  0  0  0
 11 12  1  0  0  0  0
 12 13  1  0  0  0  0
 13 36  1  0  0  0  0
 13 37  1  0  0  0  0
 13 38  1  0  0  0  0
 14 15  2  0  0  0  0
 14 18  1  0  0  0  0
 15 16  1  0  0  0  0
 16 17  2  0  0  0  0
 16 39  1  0  0  0  0
 18 19  1  0  0  0  0
 18 40  1  0  0  0  0
 19 24  2  0  0  0  0
 19 20  1  0  0  0  0
 20 21  2  0  0  0  0
 20 41  1  0  0  0  0
 21 22  1  0  0  0  0
 21 42  1  0  0  0  0
 22 23  2  0  0  0  0
 22 26  1  0  0  0  0
 23 24  1  0  0  0  0
 23 43  1  0  0  0  0
 24 25  1  0  0  0  0
M  END
$$$$
ZINC01895146
  -OEChem-08230709403D

 44 46  0     0  0  0  0  0  0999 V2000
    2.6162    8.9951   -3.3176 C   0  0  0  0  0  0  0  0  0  0  0  0
    2.3270    7.6288   -3.0147 O   0  0  0  0  0  0  0  0  0  0  0  0
    1.4993    7.4513   -1.8634 C   0  0  0  0  0  0  0  0  0  0  0  0
    1.2564    5.9581   -1.6353 C   0  0  0  0  0  0  0  0  0  0  0  0
    2.4929    5.3179   -1.3141 O   0  0  0  0  0  0  0  0  0  0  0  0
    2.4525    3.9803   -1.0802 C   0  0  0  0  0  0  0  0  0  0  0  0
    1.2513    3.3109   -1.1594 C   0  0  0  0  0  0  0  0  0  0  0  0
    1.2127    1.9322   -0.9187 C   0  0  0  0  0  0  0  0  0  0  0  0
    2.4105    1.2478   -0.5952 C   0  0  0  0  0  0  0  0  0  0  0  0
    3.6183    1.9516   -0.5206 C   0  0  0  0  0  0  0  0  0  0  0  0
    3.6335    3.2964   -0.7604 C   0  0  0  0  0  0  0  0  0  0  0  0
    4.8073    3.9791   -0.6877 O   0  0  0  0  0  0  0  0  0  0  0  0
    5.9762    3.2265   -0.3570 C   0  0  0  0  0  0  0  0  0  0  0  0
    2.3397   -0.1453   -0.3555 C   0  0  0  0  0  0  0  0  0  0  0  0
    1.1563   -0.7382   -0.4456 N   0  0  0  0  0  0  0  0  0  0  0  0
    0.0631   -0.0574   -0.7505 C   0  0  0  0  0  0  0  0  0  0  0  0
    0.0682    1.2336   -0.9831 N   0  0  0  0  0  0  0  0  0  0  0  0
    3.4716   -0.8676   -0.0362 N   0  0  0  0  0  0  0  0  0  0  0  0
    3.4071   -2.2622    0.0626 C   0  0  0  0  0  0  0  0  0  0  0  0
    2.3543   -2.9523   -0.5223 C   0  0  0  0  0  0  0  0  0  0  0  0
    2.2959   -4.3335   -0.4273 C   0  0  0  0  0  0  0  0  0  0  0  0
    3.2836   -5.0242    0.2621 C   0  0  0  0  0  0  0  0  0  0  0  0
    4.3294   -4.3359    0.8496 C   0  0  0  0  0  0  0  0  0  0  0  0
    4.3945   -2.9578    0.7517 C   0  0  0  0  0  0  0  0  0  0  0  0
    5.4172   -2.2874    1.3261 F   0  0  0  0  0  0  0  0  0  0  0  0
    3.2053   -6.7539    0.3871 Cl  0  0  0  0  0  0  0  0  0  0  0  0
    1.2687   -5.0118   -1.0047 O   0  0  0  0  0  0  0  0  0  0  0  0
    3.1350    9.4521   -2.4749 H   0  0  0  0  0  0  0  0  0  0  0  0
    3.2487    9.0447   -4.2039 H   0  0  0  0  0  0  0  0  0  0  0  0
    1.6855    9.5305   -3.5050 H   0  0  0  0  0  0  0  0  0  0  0  0
    0.5454    7.9547   -2.0207 H   0  0  0  0  0  0  0  0  0  0  0  0
    1.9949    7.8764   -0.9906 H   0  0  0  0  0  0  0  0  0  0  0  0
    0.8422    5.5148   -2.5408 H   0  0  0  0  0  0  0  0  0  0  0  0
    0.5542    5.8258   -0.8121 H   0  0  0  0  0  0  0  0  0  0  0  0
    0.3458    3.8456   -1.4057 H   0  0  0  0  0  0  0  0  0  0  0  0
    4.5336    1.4340   -0.2742 H   0  0  0  0  0  0  0  0  0  0  0  0
    6.1339    2.4519   -1.1076 H   0  0  0  0  0  0  0  0  0  0  0  0
    6.8406    3.8900   -0.3324 H   0  0  0  0  0  0  0  0  0  0  0  0
    5.8456    2.7635    0.6211 H   0  0  0  0  0  0  0  0  0  0  0  0
   -0.8753   -0.5886   -0.8109 H   0  0  0  0  0  0  0  0  0  0  0  0
    4.3119   -0.4087    0.1198 H   0  0  0  0  0  0  0  0  0  0  0  0
    1.5840   -2.4138   -1.0542 H   0  0  0  0  0  0  0  0  0  0  0  0
    5.0965   -4.8753    1.3854 H   0  0  0  0  0  0  0  0  0  0  0  0
    0.5034   -5.1336   -0.4263 H   0  0  0  0  0  0  0  0  0  0  0  0
  1  2  1  0  0  0  0
  1 28  1  0  0  0  0
  1 29  1  0  0  0  0
  1 30  1  0  0  0  0
  2  3  1  0  0  0  0
  3  4  1  0  0  0  0
  3 31  1  0  0  0  0
  3 32  1  0  0  0  0
  4  5  1  0  0  0  0
  4 33  1  0  0  0  0
  4 34  1  0  0  0  0
  5  6  1  0  0  0  0
  6 11  2  0  0  0  0
  6  7  1  0  0  0  0
  7  8  2  0  0  0  0
  7 35  1  0  0  0  0
  8 17  1  0  0  0  0
  8  9  1  0  0  0  0
  9 10  2  0  0  0  0
  9 14  1  0  0  0  0
 10 11  1  0  0  0  0
 10 36  1  0  0  0  0
 11 12  1  0  0  0  0
 12 13  1  0  0  0  0
 13 37  1  0  0  0  0
 13 38  1  0  0  0  0
 13 39  1  0  0  0  0
 14 15  2  0  0  0  0
 14 18  1  0  0  0  0
 15 16  1  0  0  0  0
 16 17  2  0  0  0  0
 16 40  1  0  0  0  0
 18 19  1  0  0  0  0
 18 41  1  0  0  0  0
 19 24  2  0  0  0  0
 19 20  1  0  0  0  0
 20 21  2  0  0  0  0
 20 42  1  0  0  0  0
 21 22  1  0  0  0  0
 21 27  1  0  0  0  0
 22 23  2  0  0  0  0
 22 26  1  0  0  0  0
 23 24  1  0  0  0  0
 23 43  1  0  0  0  0
 24 25  1  0  0  0  0
 27 44  1  0  0  0  0
M  END
$$$$
ZINC01895417
  -OEChem-08230709403D

 44 46  0     0  0  0  0  0  0999 V2000
   -2.7075    1.0167   -2.4881 C   0  0  0  0  0  0  0  0  0  0  0  0
   -1.8536    0.8137   -1.3605 O   0  0  0  0  0  0  0  0  0  0  0  0
   -1.6569   -0.5601   -1.0202 C   0  0  0  0  0  0  0  0  0  0  0  0
   -0.7315   -0.6573    0.1944 C   0  0  0  0  0  0  0  0  0  0  0  0
   -1.3736   -0.0746    1.3303 O   0  0  0  0  0  0  0  0  0  0  0  0
   -0.6817   -0.0792    2.4998 C   0  0  0  0  0  0  0  0  0  0  0  0
    0.5683   -0.6272    2.5401 C   0  0  0  0  0  0  0  0  0  0  0  0
    1.2857   -0.6335    3.7464 C   0  0  0  0  0  0  0  0  0  0  0  0
    0.6955   -0.0681    4.9054 C   0  0  0  0  0  0  0  0  0  0  0  0
   -0.5874    0.4872    4.8366 C   0  0  0  0  0  0  0  0  0  0  0  0
   -1.2595    0.4841    3.6469 C   0  0  0  0  0  0  0  0  0  0  0  0
   -2.5032    1.0280    3.5757 O   0  0  0  0  0  0  0  0  0  0  0  0
   -3.0371    1.5860    4.7781 C   0  0  0  0  0  0  0  0  0  0  0  0
    1.4410   -0.0891    6.1080 C   0  0  0  0  0  0  0  0  0  0  0  0
    2.7024   -0.6641    6.0637 C   0  0  0  0  0  0  0  0  0  0  0  0
    3.1702   -1.1675    4.9330 N   0  0  0  0  0  0  0  0  0  0  0  0
    2.5123   -1.1601    3.8304 N   0  0  0  0  0  0  0  0  0  0  0  0
    0.9310    0.4448    7.2838 N   0  0  0  0  0  0  0  0  0  0  0  0
    1.7350    0.5151    8.4267 C   0  0  0  0  0  0  0  0  0  0  0  0
    3.0569    0.9257    8.3223 C   0  0  0  0  0  0  0  0  0  0  0  0
    3.8505    0.9947    9.4561 C   0  0  0  0  0  0  0  0  0  0  0  0
    3.3232    0.6533   10.6943 C   0  0  0  0  0  0  0  0  0  0  0  0
    2.0062    0.2437   10.7981 C   0  0  0  0  0  0  0  0  0  0  0  0
    1.2092    0.1790    9.6696 C   0  0  0  0  0  0  0  0  0  0  0  0
   -0.0785   -0.2159    9.7739 F   0  0  0  0  0  0  0  0  0  0  0  0
    4.3184    0.7401   12.1140 Cl  0  0  0  0  0  0  0  0  0  0  0  0
    5.1454    1.3971    9.3561 O   0  0  0  0  0  0  0  0  0  0  0  0
   -2.8060    2.0849   -2.6817 H   0  0  0  0  0  0  0  0  0  0  0  0
   -2.2778    0.5272   -3.3621 H   0  0  0  0  0  0  0  0  0  0  0  0
   -3.6901    0.5929   -2.2807 H   0  0  0  0  0  0  0  0  0  0  0  0
   -1.2054   -1.0824   -1.8637 H   0  0  0  0  0  0  0  0  0  0  0  0
   -2.6177   -1.0167   -0.7823 H   0  0  0  0  0  0  0  0  0  0  0  0
   -0.5102   -1.7047    0.3997 H   0  0  0  0  0  0  0  0  0  0  0  0
    0.1962   -0.1236   -0.0121 H   0  0  0  0  0  0  0  0  0  0  0  0
    1.0030   -1.0533    1.6480 H   0  0  0  0  0  0  0  0  0  0  0  0
   -1.0408    0.9193    5.7164 H   0  0  0  0  0  0  0  0  0  0  0  0
   -3.0997    0.8109    5.5419 H   0  0  0  0  0  0  0  0  0  0  0  0
   -2.3863    2.3879    5.1267 H   0  0  0  0  0  0  0  0  0  0  0  0
   -4.0325    1.9849    4.5828 H   0  0  0  0  0  0  0  0  0  0  0  0
    3.3066   -0.7016    6.9581 H   0  0  0  0  0  0  0  0  0  0  0  0
    0.0173    0.7691    7.3130 H   0  0  0  0  0  0  0  0  0  0  0  0
    3.4663    1.1907    7.3587 H   0  0  0  0  0  0  0  0  0  0  0  0
    1.5985   -0.0220   11.7622 H   0  0  0  0  0  0  0  0  0  0  0  0
    5.2692    2.3513    9.4517 H   0  0  0  0  0  0  0  0  0  0  0  0
  1  2  1  0  0  0  0
  1 28  1  0  0  0  0
  1 29  1  0  0  0  0
  1 30  1  0  0  0  0
  2  3  1  0  0  0  0
  3  4  1  0  0  0  0
  3 31  1  0  0  0  0
  3 32  1  0  0  0  0
  4  5  1  0  0  0  0
  4 33  1  0  0  0  0
  4 34  1  0  0  0  0
  5  6  1  0  0  0  0
  6 11  2  0  0  0  0
  6  7  1  0  0  0  0
  7  8  2  0  0  0  0
  7 35  1  0  0  0  0
  8 17  1  0  0  0  0
  8  9  1  0  0  0  0
  9 10  2  0  0  0  0
  9 14  1  0  0  0  0
 10 11  1  0  0  0  0
 10 36  1  0  0  0  0
 11 12  1  0  0  0  0
 12 13  1  0  0  0  0
 13 37  1  0  0  0  0
 13 38  1  0  0  0  0
 13 39  1  0  0  0  0
 14 15  2  0  0  0  0
 14 18  1  0  0  0  0
 15 16  1  0  0  0  0
 15 40  1  0  0  0  0
 16 17  2  0  0  0  0
 18 19  1  0  0  0  0
 18 41  1  0  0  0  0
 19 24  2  0  0  0  0
 19 20  1  0  0  0  0
 20 21  2  0  0  0  0
 20 42  1  0  0  0  0
 21 22  1  0  0  0  0
 21 27  1  0  0  0  0
 22 23  2  0  0  0  0
 22 26  1  0  0  0  0
 23 24  1  0  0  0  0
 23 43  1  0  0  0  0
 24 25  1  0  0  0  0
 27 44  1  0  0  0  0
M  END
$$$$
ZINC01907301
  -OEChem-08230709403D

 33 35  0     0  0  0  0  0  0999 V2000
   -0.1208    2.6390    0.0805 C   0  0  0  0  0  0  0  0  0  0  0  0
   -0.7887    2.1151    1.3257 C   0  0  0  0  0  0  0  0  0  0  0  0
   -0.2102    1.9899    2.5879 C   0  0  0  0  0  0  0  0  0  0  0  0
   -1.1463    1.4792    3.4290 C   0  0  0  0  0  0  0  0  0  0  0  0
   -2.2924    1.2779    2.7452 N   0  0  0  0  0  0  0  0  0  0  0  0
   -3.1155    0.9209    3.1139 H   0  0  0  0  0  0  0  0  0  0  0  0
   -2.1008    1.6702    1.4364 C   0  0  0  0  0  0  0  0  0  0  0  0
   -3.0548    1.6254    0.4053 C   0  0  0  0  0  0  0  0  0  0  0  0
   -4.3618    2.0293    0.6500 C   0  0  0  0  0  0  0  0  0  0  0  0
   -4.8823    2.7098    1.8516 C   0  0  0  0  0  0  0  0  0  0  0  0
   -6.1609    2.9076    1.6642 N   0  0  0  0  0  0  0  0  0  0  0  0
   -6.5721    2.4085    0.4287 N   0  0  0  0  0  0  0  0  0  0  0  0
   -5.5269    1.8664   -0.2273 C   0  0  0  0  0  0  0  0  0  0  0  0
   -5.5457    1.3442   -1.3294 O   0  0  0  0  0  0  0  0  0  0  0  0
   -4.0999    3.1001    3.0472 C   0  0  0  0  0  0  0  0  0  0  0  0
   -4.4838    2.6524    4.3126 C   0  0  0  0  0  0  0  0  0  0  0  0
   -3.7828    3.0030    5.3740 N   0  0  0  0  0  0  0  0  0  0  0  0
   -2.7187    3.7767    5.2402 C   0  0  0  0  0  0  0  0  0  0  0  0
   -2.3346    4.2233    3.9878 C   0  0  0  0  0  0  0  0  0  0  0  0
   -3.0258    3.8740    2.9185 N   0  0  0  0  0  0  0  0  0  0  0  0
   -0.9384    1.1845    4.8922 C   0  0  0  0  0  0  0  0  0  0  0  0
    0.3475    1.8134   -0.4554 H   0  0  0  0  0  0  0  0  0  0  0  0
    0.6386    3.3707    0.3560 H   0  0  0  0  0  0  0  0  0  0  0  0
   -0.8656    3.1118   -0.5597 H   0  0  0  0  0  0  0  0  0  0  0  0
    0.8038    2.2530    2.8507 H   0  0  0  0  0  0  0  0  0  0  0  0
   -2.7722    1.2772   -0.5771 H   0  0  0  0  0  0  0  0  0  0  0  0
   -7.4801    2.4466    0.0897 H   0  0  0  0  0  0  0  0  0  0  0  0
   -5.3529    2.0208    4.4225 H   0  0  0  0  0  0  0  0  0  0  0  0
   -2.1475    4.0614    6.1115 H   0  0  0  0  0  0  0  0  0  0  0  0
   -1.4647    4.8550    3.8845 H   0  0  0  0  0  0  0  0  0  0  0  0
   -1.1005    2.0929    5.4724 H   0  0  0  0  0  0  0  0  0  0  0  0
   -1.6443    0.4181    5.2123 H   0  0  0  0  0  0  0  0  0  0  0  0
    0.0799    0.8293    5.0502 H   0  0  0  0  0  0  0  0  0  0  0  0
  1  2  1  0  0  0  0
  1 22  1  0  0  0  0
  1 23  1  0  0  0  0
  1 24  1  0  0  0  0
  2  7  2  0  0  0  0
  2  3  1  0  0  0  0
  3  4  2  0  0  0  0
  3 25  1  0  0  0  0
  4  5  1  0  0  0  0
  4 21  1  0  0  0  0
  5  6  1  0  0  0  0
  5  7  1  0  0  0  0
  7  8  1  0  0  0  0
  8  9  2  0  0  0  0
  8 26  1  0  0  0  0
  9 13  1  0  0  0  0
  9 10  1  0  0  0  0
 10 11  2  0  0  0  0
 10 15  1  0  0  0  0
 11 12  1  0  0  0  0
 12 13  1  0  0  0  0
 12 27  1  0  0  0  0
 13 14  2  0  0  0  0
 15 20  2  0  0  0  0
 15 16  1  0  0  0  0
 16 17  2  0  0  0  0
 16 28  1  0  0  0  0
 17 18  1  0  0  0  0
 18 19  2  0  0  0  0
 18 29  1  0  0  0  0
 19 20  1  0  0  0  0
 19 30  1  0  0  0  0
 21 31  1  0  0  0  0
 21 32  1  0  0  0  0
 21 33  1  0  0  0  0
M  END
$$$$
ZINC02541690
  -OEChem-08230709403D

 50 54  0     0  0  0  0  0  0999 V2000
   -0.0076    1.0769   -0.0639 C   0  0  0  0  0  0  0  0  0  0  0  0
   -0.3749    1.7874   -1.1918 C   0  0  0  0  0  0  0  0  0  0  0  0
   -0.4011    3.1682   -1.1616 C   0  0  0  0  0  0  0  0  0  0  0  0
   -0.0482    3.8424   -0.0012 C   0  0  0  0  0  0  0  0  0  0  0  0
    0.3252    3.1270    1.1277 C   0  0  0  0  0  0  0  0  0  0  0  0
    0.3446    1.7462    1.0937 C   0  0  0  0  0  0  0  0  0  0  0  0
   -0.0685    5.2007    0.0297 O   0  0  0  0  0  0  0  0  0  0  0  0
   -1.2733    5.8229   -0.0605 C   0  0  0  0  0  0  0  0  0  0  0  0
   -2.4420    5.0734   -0.0575 C   0  0  0  0  0  0  0  0  0  0  0  0
   -3.6665    5.7022   -0.1440 C   0  0  0  0  0  0  0  0  0  0  0  0
   -3.7294    7.0914   -0.2453 C   0  0  0  0  0  0  0  0  0  0  0  0
   -2.5538    7.8408   -0.2534 C   0  0  0  0  0  0  0  0  0  0  0  0
   -1.3327    7.2063   -0.1612 C   0  0  0  0  0  0  0  0  0  0  0  0
   -5.0439    7.7702   -0.3447 C   0  0  0  0  0  0  0  0  0  0  0  0
   -5.4752    8.8157    0.4026 C   0  0  0  0  0  0  0  0  0  0  0  0
   -6.7407    9.1662    0.0160 N   0  0  0  0  0  0  0  0  0  0  0  0
   -7.1722    8.3480   -0.9928 C   0  0  0  0  0  0  0  0  0  0  0  0
   -6.1366    7.4378   -1.2675 C   0  0  0  0  0  0  0  0  0  0  0  0
   -6.3296    6.4808   -2.2726 C   0  0  0  0  0  0  0  0  0  0  0  0
   -7.4889    6.4750   -2.9250 N   0  0  0  0  0  0  0  0  0  0  0  0
   -8.4364    7.3483   -2.6357 C   0  0  0  0  0  0  0  0  0  0  0  0
   -8.2978    8.2633   -1.7007 N   0  0  0  0  0  0  0  0  0  0  0  0
   -5.3395    5.5642   -2.5782 N   0  0  0  0  0  0  0  0  0  0  0  0
   -7.5233   10.2572    0.6019 C   0  0  0  0  0  0  0  0  0  0  0  0
   -6.7514   11.5871    0.4778 C   0  0  0  0  0  0  0  0  0  0  0  0
   -7.0705   12.3360    1.7956 C   0  0  0  0  0  0  0  0  0  0  0  0
   -7.0781   11.1955    2.8436 C   0  0  0  0  0  0  0  0  0  0  0  0
   -7.7310   10.0083    2.1061 C   0  0  0  0  0  0  0  0  0  0  0  0
    0.0086   -0.0027   -0.0884 H   0  0  0  0  0  0  0  0  0  0  0  0
   -0.6455    1.2623   -2.0959 H   0  0  0  0  0  0  0  0  0  0  0  0
   -0.6917    3.7227   -2.0416 H   0  0  0  0  0  0  0  0  0  0  0  0
    0.6006    3.6493    2.0319 H   0  0  0  0  0  0  0  0  0  0  0  0
    0.6354    1.1889    1.9719 H   0  0  0  0  0  0  0  0  0  0  0  0
   -2.3923    3.9971    0.0169 H   0  0  0  0  0  0  0  0  0  0  0  0
   -4.5754    5.1189   -0.1374 H   0  0  0  0  0  0  0  0  0  0  0  0
   -2.5992    8.9170   -0.3321 H   0  0  0  0  0  0  0  0  0  0  0  0
   -0.4216    7.7863   -0.1671 H   0  0  0  0  0  0  0  0  0  0  0  0
   -4.9063    9.2997    1.1827 H   0  0  0  0  0  0  0  0  0  0  0  0
   -9.3630    7.3095   -3.1890 H   0  0  0  0  0  0  0  0  0  0  0  0
   -4.4989    5.5788   -2.0944 H   0  0  0  0  0  0  0  0  0  0  0  0
   -5.4859    4.9068   -3.2763 H   0  0  0  0  0  0  0  0  0  0  0  0
   -8.4876   10.3362    0.0999 H   0  0  0  0  0  0  0  0  0  0  0  0
   -5.6807   11.4004    0.3949 H   0  0  0  0  0  0  0  0  0  0  0  0
   -7.1079   12.1565   -0.3805 H   0  0  0  0  0  0  0  0  0  0  0  0
   -8.0475   12.8161    1.7401 H   0  0  0  0  0  0  0  0  0  0  0  0
   -6.2930   13.0650    2.0236 H   0  0  0  0  0  0  0  0  0  0  0  0
   -7.6730   11.4791    3.7118 H   0  0  0  0  0  0  0  0  0  0  0  0
   -6.0601   10.9455    3.1427 H   0  0  0  0  0  0  0  0  0  0  0  0
   -8.7961    9.9672    2.3342 H   0  0  0  0  0  0  0  0  0  0  0  0
   -7.2503    9.0752    2.4000 H   0  0  0  0  0  0  0  0  0  0  0  0
  1  6  2  0  0  0  0
  1  2  1  0  0  0  0
  1 29  1  0  0  0  0
  2  3  2  0  0  0  0
  2 30  1  0  0  0  0
  3  4  1  0  0  0  0
  3 31  1  0  0  0  0
  4  5  2  0  0  0  0
  4  7  1  0  0  0  0
  5  6  1  0  0  0  0
  5 32  1  0  0  0  0
  6 33  1  0  0  0  0
  7  8  1  0  0  0  0
  8 13  2  0  0  0  0
  8  9  1  0  0  0  0
  9 10  2  0  0  0  0
  9 34  1  0  0  0  0
 10 11  1  0  0  0  0
 10 35  1  0  0  0  0
 11 12  2  0  0  0  0
 11 14  1  0  0  0  0
 12 13  1  0  0  0  0
 12 36  1  0  0  0  0
 13 37  1  0  0  0  0
 14 18  1  0  0  0  0
 14 15  2  0  0  0  0
 15 16  1  0  0  0  0
 15 38  1  0  0  0  0
 16 17  1  0  0  0  0
 16 24  1  0  0  0  0
 17 22  2  0  0  0  0
 17 18  1  0  0  0  0
 18 19  2  0  0  0  0
 19 20  1  0  0  0  0
 19 23  1  0  0  0  0
 20 21  2  0  0  0  0
 21 22  1  0  0  0  0
 21 39  1  0  0  0  0
 23 40  1  0  0  0  0
 23 41  1  0  0  0  0
 24 28  1  0  0  0  0
 24 25  1  0  0  0  0
 24 42  1  0  0  0  0
 25 26  1  0  0  0  0
 25 43  1  0  0  0  0
 25 44  1  0  0  0  0
 26 27  1  0  0  0  0
 26 45  1  0  0  0  0
 26 46  1  0  0  0  0
 27 28  1  0  0  0  0
 27 47  1  0  0  0  0
 27 48  1  0  0  0  0
 28 49  1  0  0  0  0
 28 50  1  0  0  0  0
M  END
$$$$
ZINC02549646
  -OEChem-08230709403D

 29 32  0     0  0  0  0  0  0999 V2000
   -1.2167   -7.4472   -0.0243 C   0  0  0  0  0  0  0  0  0  0  0  0
   -2.2490   -6.8510    0.6773 C   0  0  0  0  0  0  0  0  0  0  0  0
   -2.3756   -5.4769    0.6891 C   0  0  0  0  0  0  0  0  0  0  0  0
   -1.4602   -4.6893   -0.0075 C   0  0  0  0  0  0  0  0  0  0  0  0
   -0.4246   -5.2961   -0.7168 C   0  0  0  0  0  0  0  0  0  0  0  0
   -0.3050   -6.6709   -0.7171 C   0  0  0  0  0  0  0  0  0  0  0  0
   -1.5910   -3.2127    0.0009 C   0  0  0  0  0  0  0  0  0  0  0  0
   -0.5249   -2.2817   -0.0044 C   0  0  0  0  0  0  0  0  0  0  0  0
   -1.0862   -1.0118    0.0076 C   0  0  0  0  0  0  0  0  0  0  0  0
   -2.4276   -1.1663    0.0195 N   0  0  0  0  0  0  0  0  0  0  0  0
   -3.6367   -2.9332    0.0201 H   0  0  0  0  0  0  0  0  0  0  0  0
   -2.7195   -2.5347    0.0144 N   0  0  0  0  0  0  0  0  0  0  0  0
    0.0021   -0.0041    0.0026 C   0  0  0  0  0  0  0  0  0  0  0  0
   -0.0168    1.3840    0.0096 C   0  0  0  0  0  0  0  0  0  0  0  0
    1.1752    2.0935    0.0015 C   0  0  0  0  0  0  0  0  0  0  0  0
    2.3848    1.4283   -0.0120 C   0  0  0  0  0  0  0  0  0  0  0  0
    2.4196    0.0414   -0.0204 C   0  0  0  0  0  0  0  0  0  0  0  0
    1.2351   -0.6793   -0.0134 C   0  0  0  0  0  0  0  0  0  0  0  0
    0.9448   -2.1357   -0.0175 C   0  0  0  0  0  0  0  0  0  0  0  0
    1.7605   -3.0354   -0.0289 O   0  0  0  0  0  0  0  0  0  0  0  0
   -1.1218   -8.5230   -0.0310 H   0  0  0  0  0  0  0  0  0  0  0  0
   -2.9576   -7.4621    1.2166 H   0  0  0  0  0  0  0  0  0  0  0  0
   -3.1821   -5.0125    1.2372 H   0  0  0  0  0  0  0  0  0  0  0  0
    0.2848   -4.6911   -1.2619 H   0  0  0  0  0  0  0  0  0  0  0  0
    0.4990   -7.1418   -1.2631 H   0  0  0  0  0  0  0  0  0  0  0  0
   -0.9592    1.9114    0.0170 H   0  0  0  0  0  0  0  0  0  0  0  0
    1.1568    3.1733    0.0069 H   0  0  0  0  0  0  0  0  0  0  0  0
    3.3074    1.9897   -0.0176 H   0  0  0  0  0  0  0  0  0  0  0  0
    3.3676   -0.4759   -0.0320 H   0  0  0  0  0  0  0  0  0  0  0  0
  1  6  2  0  0  0  0
  1  2  1  0  0  0  0
  1 21  1  0  0  0  0
  2  3  2  0  0  0  0
  2 22  1  0  0  0  0
  3  4  1  0  0  0  0
  3 23  1  0  0  0  0
  4  5  2  0  0  0  0
  4  7  1  0  0  0  0
  5  6  1  0  0  0  0
  5 24  1  0  0  0  0
  6 25  1  0  0  0  0
  7  8  2  0  0  0  0
  7 12  1  0  0  0  0
  8 19  1  0  0  0  0
  8  9  1  0  0  0  0
  9 13  1  0  0  0  0
  9 10  2  0  0  0  0
 10 12  1  0  0  0  0
 11 12  1  0  0  0  0
 13 18  2  0  0  0  0
 13 14  1  0  0  0  0
 14 15  2  0  0  0  0
 14 26  1  0  0  0  0
 15 16  1  0  0  0  0
 15 27  1  0  0  0  0
 16 17  2  0  0  0  0
 16 28  1  0  0  0  0
 17 18  1  0  0  0  0
 17 29  1  0  0  0  0
 18 19  1  0  0  0  0
 19 20  2  0  0  0  0
M  END
$$$$
ZINC02549646
  -OEChem-08230709403D

 29 32  0     0  0  0  0  0  0999 V2000
   -1.2167   -7.4472   -0.0243 C   0  0  0  0  0  0  0  0  0  0  0  0
   -2.2490   -6.8510    0.6773 C   0  0  0  0  0  0  0  0  0  0  0  0
   -2.3756   -5.4769    0.6891 C   0  0  0  0  0  0  0  0  0  0  0  0
   -1.4602   -4.6893   -0.0075 C   0  0  0  0  0  0  0  0  0  0  0  0
   -0.4246   -5.2961   -0.7168 C   0  0  0  0  0  0  0  0  0  0  0  0
   -0.3050   -6.6709   -0.7171 C   0  0  0  0  0  0  0  0  0  0  0  0
   -1.5910   -3.2127    0.0009 C   0  0  0  0  0  0  0  0  0  0  0  0
   -0.5249   -2.2817   -0.0044 C   0  0  0  0  0  0  0  0  0  0  0  0
   -1.0862   -1.0118    0.0076 C   0  0  0  0  0  0  0  0  0  0  0  0
   -2.4276   -1.1663    0.0195 N   0  0  0  0  0  0  0  0  0  0  0  0
   -3.6367   -2.9332    0.0201 H   0  0  0  0  0  0  0  0  0  0  0  0
   -2.7195   -2.5347    0.0144 N   0  0  0  0  0  0  0  0  0  0  0  0
    0.0021   -0.0041    0.0026 C   0  0  0  0  0  0  0  0  0  0  0  0
   -0.0168    1.3840    0.0096 C   0  0  0  0  0  0  0  0  0  0  0  0
    1.1752    2.0935    0.0015 C   0  0  0  0  0  0  0  0  0  0  0  0
    2.3848    1.4283   -0.0120 C   0  0  0  0  0  0  0  0  0  0  0  0
    2.4196    0.0414   -0.0204 C   0  0  0  0  0  0  0  0  0  0  0  0
    1.2351   -0.6793   -0.0134 C   0  0  0  0  0  0  0  0  0  0  0  0
    0.9448   -2.1357   -0.0175 C   0  0  0  0  0  0  0  0  0  0  0  0
    1.7605   -3.0354   -0.0289 O   0  0  0  0  0  0  0  0  0  0  0  0
   -1.1218   -8.5230   -0.0310 H   0  0  0  0  0  0  0  0  0  0  0  0
   -2.9576   -7.4621    1.2166 H   0  0  0  0  0  0  0  0  0  0  0  0
   -3.1821   -5.0125    1.2372 H   0  0  0  0  0  0  0  0  0  0  0  0
    0.2848   -4.6911   -1.2619 H   0  0  0  0  0  0  0  0  0  0  0  0
    0.4990   -7.1418   -1.2631 H   0  0  0  0  0  0  0  0  0  0  0  0
   -0.9592    1.9114    0.0170 H   0  0  0  0  0  0  0  0  0  0  0  0
    1.1568    3.1733    0.0069 H   0  0  0  0  0  0  0  0  0  0  0  0
    3.3074    1.9897   -0.0176 H   0  0  0  0  0  0  0  0  0  0  0  0
    3.3676   -0.4759   -0.0320 H   0  0  0  0  0  0  0  0  0  0  0  0
  1  6  2  0  0  0  0
  1  2  1  0  0  0  0
  1 21  1  0  0  0  0
  2  3  2  0  0  0  0
  2 22  1  0  0  0  0
  3  4  1  0  0  0  0
  3 23  1  0  0  0  0
  4  5  2  0  0  0  0
  4  7  1  0  0  0  0
  5  6  1  0  0  0  0
  5 24  1  0  0  0  0
  6 25  1  0  0  0  0
  7  8  2  0  0  0  0
  7 12  1  0  0  0  0
  8 19  1  0  0  0  0
  8  9  1  0  0  0  0
  9 13  1  0  0  0  0
  9 10  2  0  0  0  0
 10 12  1  0  0  0  0
 11 12  1  0  0  0  0
 13 18  2  0  0  0  0
 13 14  1  0  0  0  0
 14 15  2  0  0  0  0
 14 26  1  0  0  0  0
 15 16  1  0  0  0  0
 15 27  1  0  0  0  0
 16 17  2  0  0  0  0
 16 28  1  0  0  0  0
 17 18  1  0  0  0  0
 17 29  1  0  0  0  0
 18 19  1  0  0  0  0
 19 20  2  0  0  0  0
M  END
$$$$
ZINC03815833
  -OEChem-08230709403D

 33 36  0     0  0  0  0  0  0999 V2000
    2.2162    5.3068   -0.0235 C   0  0  0  0  0  0  0  0  0  0  0  0
    2.3114    3.8810   -0.0290 O   0  0  0  0  0  0  0  0  0  0  0  0
    1.1448    3.1850   -0.0161 C   0  0  0  0  0  0  0  0  0  0  0  0
    1.1664    1.7965   -0.0206 C   0  0  0  0  0  0  0  0  0  0  0  0
   -0.0158    1.0871   -0.0079 C   0  0  0  0  0  0  0  0  0  0  0  0
   -1.2342    1.7655    0.0040 C   0  0  0  0  0  0  0  0  0  0  0  0
   -1.2523    3.1601    0.0143 C   0  0  0  0  0  0  0  0  0  0  0  0
   -0.0666    3.8635    0.0011 C   0  0  0  0  0  0  0  0  0  0  0  0
   -2.5068    1.0063    0.0119 C   0  0  0  0  0  0  0  0  0  0  0  0
   -3.6957    1.3793    0.6836 C   0  0  0  0  0  0  0  0  0  0  0  0
   -4.6399    0.3929    0.4297 C   0  0  0  0  0  0  0  0  0  0  0  0
   -4.0486   -0.5368   -0.3506 N   0  0  0  0  0  0  0  0  0  0  0  0
   -2.0606   -0.6505   -1.1373 H   0  0  0  0  0  0  0  0  0  0  0  0
   -2.7281   -0.1424   -0.5930 N   0  0  0  0  0  0  0  0  0  0  0  0
   -5.9071    0.7527    1.1109 C   0  0  0  0  0  0  0  0  0  0  0  0
   -7.1340    0.1079    1.1928 C   0  0  0  0  0  0  0  0  0  0  0  0
   -8.1672    0.6741    1.9248 C   0  0  0  0  0  0  0  0  0  0  0  0
   -7.9812    1.8713    2.5866 C   0  0  0  0  0  0  0  0  0  0  0  0
   -6.7569    2.5207    2.5254 C   0  0  0  0  0  0  0  0  0  0  0  0
   -5.7160    1.9652    1.7966 C   0  0  0  0  0  0  0  0  0  0  0  0
   -4.3198    2.4037    1.5448 C   0  0  0  0  0  0  0  0  0  0  0  0
   -3.7916    3.4126    1.9669 O   0  0  0  0  0  0  0  0  0  0  0  0
    3.2173    5.7378   -0.0351 H   0  0  0  0  0  0  0  0  0  0  0  0
    1.6679    5.6378   -0.9055 H   0  0  0  0  0  0  0  0  0  0  0  0
    1.6908    5.6325    0.8743 H   0  0  0  0  0  0  0  0  0  0  0  0
    2.1103    1.2717   -0.0336 H   0  0  0  0  0  0  0  0  0  0  0  0
    0.0018    0.0072   -0.0118 H   0  0  0  0  0  0  0  0  0  0  0  0
   -2.1942    3.6885    0.0276 H   0  0  0  0  0  0  0  0  0  0  0  0
   -0.0800    4.9434    0.0044 H   0  0  0  0  0  0  0  0  0  0  0  0
   -7.2870   -0.8292    0.6781 H   0  0  0  0  0  0  0  0  0  0  0  0
   -9.1235    0.1749    1.9776 H   0  0  0  0  0  0  0  0  0  0  0  0
   -8.7919    2.3040    3.1540 H   0  0  0  0  0  0  0  0  0  0  0  0
   -6.6144    3.4570    3.0445 H   0  0  0  0  0  0  0  0  0  0  0  0
  1  2  1  0  0  0  0
  1 23  1  0  0  0  0
  1 24  1  0  0  0  0
  1 25  1  0  0  0  0
  2  3  1  0  0  0  0
  3  8  2  0  0  0  0
  3  4  1  0  0  0  0
  4  5  2  0  0  0  0
  4 26  1  0  0  0  0
  5  6  1  0  0  0  0
  5 27  1  0  0  0  0
  6  7  2  0  0  0  0
  6  9  1  0  0  0  0
  7  8  1  0  0  0  0
  7 28  1  0  0  0  0
  8 29  1  0  0  0  0
  9 10  2  0  0  0  0
  9 14  1  0  0  0  0
 10 21  1  0  0  0  0
 10 11  1  0  0  0  0
 11 15  1  0  0  0  0
 11 12  2  0  0  0  0
 12 14  1  0  0  0  0
 13 14  1  0  0  0  0
 15 20  2  0  0  0  0
 15 16  1  0  0  0  0
 16 17  2  0  0  0  0
 16 30  1  0  0  0  0
 17 18  1  0  0  0  0
 17 31  1  0  0  0  0
 18 19  2  0  0  0  0
 18 32  1  0  0  0  0
 19 20  1  0  0  0  0
 19 33  1  0  0  0  0
 20 21  1  0  0  0  0
 21 22  2  0  0  0  0
M  END
$$$$
ZINC03815833
  -OEChem-08230709403D

 33 36  0     0  0  0  0  0  0999 V2000
    2.2162    5.3068   -0.0235 C   0  0  0  0  0  0  0  0  0  0  0  0
    2.3114    3.8810   -0.0290 O   0  0  0  0  0  0  0  0  0  0  0  0
    1.1448    3.1850   -0.0161 C   0  0  0  0  0  0  0  0  0  0  0  0
    1.1664    1.7965   -0.0206 C   0  0  0  0  0  0  0  0  0  0  0  0
   -0.0158    1.0871   -0.0079 C   0  0  0  0  0  0  0  0  0  0  0  0
   -1.2342    1.7655    0.0040 C   0  0  0  0  0  0  0  0  0  0  0  0
   -1.2523    3.1601    0.0143 C   0  0  0  0  0  0  0  0  0  0  0  0
   -0.0666    3.8635    0.0011 C   0  0  0  0  0  0  0  0  0  0  0  0
   -2.5068    1.0063    0.0119 C   0  0  0  0  0  0  0  0  0  0  0  0
   -3.6957    1.3793    0.6836 C   0  0  0  0  0  0  0  0  0  0  0  0
   -4.6399    0.3929    0.4297 C   0  0  0  0  0  0  0  0  0  0  0  0
   -4.0486   -0.5368   -0.3506 N   0  0  0  0  0  0  0  0  0  0  0  0
   -2.0606   -0.6505   -1.1373 H   0  0  0  0  0  0  0  0  0  0  0  0
   -2.7281   -0.1424   -0.5930 N   0  0  0  0  0  0  0  0  0  0  0  0
   -5.9071    0.7527    1.1109 C   0  0  0  0  0  0  0  0  0  0  0  0
   -7.1340    0.1079    1.1928 C   0  0  0  0  0  0  0  0  0  0  0  0
   -8.1672    0.6741    1.9248 C   0  0  0  0  0  0  0  0  0  0  0  0
   -7.9812    1.8713    2.5866 C   0  0  0  0  0  0  0  0  0  0  0  0
   -6.7569    2.5207    2.5254 C   0  0  0  0  0  0  0  0  0  0  0  0
   -5.7160    1.9652    1.7966 C   0  0  0  0  0  0  0  0  0  0  0  0
   -4.3198    2.4037    1.5448 C   0  0  0  0  0  0  0  0  0  0  0  0
   -3.7916    3.4126    1.9669 O   0  0  0  0  0  0  0  0  0  0  0  0
    3.2173    5.7378   -0.0351 H   0  0  0  0  0  0  0  0  0  0  0  0
    1.6679    5.6378   -0.9055 H   0  0  0  0  0  0  0  0  0  0  0  0
    1.6908    5.6325    0.8743 H   0  0  0  0  0  0  0  0  0  0  0  0
    2.1103    1.2717   -0.0336 H   0  0  0  0  0  0  0  0  0  0  0  0
    0.0018    0.0072   -0.0118 H   0  0  0  0  0  0  0  0  0  0  0  0
   -2.1942    3.6885    0.0276 H   0  0  0  0  0  0  0  0  0  0  0  0
   -0.0800    4.9434    0.0044 H   0  0  0  0  0  0  0  0  0  0  0  0
   -7.2870   -0.8292    0.6781 H   0  0  0  0  0  0  0  0  0  0  0  0
   -9.1235    0.1749    1.9776 H   0  0  0  0  0  0  0  0  0  0  0  0
   -8.7919    2.3040    3.1540 H   0  0  0  0  0  0  0  0  0  0  0  0
   -6.6144    3.4570    3.0445 H   0  0  0  0  0  0  0  0  0  0  0  0
  1  2  1  0  0  0  0
  1 23  1  0  0  0  0
  1 24  1  0  0  0  0
  1 25  1  0  0  0  0
  2  3  1  0  0  0  0
  3  8  2  0  0  0  0
  3  4  1  0  0  0  0
  4  5  2  0  0  0  0
  4 26  1  0  0  0  0
  5  6  1  0  0  0  0
  5 27  1  0  0  0  0
  6  7  2  0  0  0  0
  6  9  1  0  0  0  0
  7  8  1  0  0  0  0
  7 28  1  0  0  0  0
  8 29  1  0  0  0  0
  9 10  2  0  0  0  0
  9 14  1  0  0  0  0
 10 21  1  0  0  0  0
 10 11  1  0  0  0  0
 11 15  1  0  0  0  0
 11 12  2  0  0  0  0
 12 14  1  0  0  0  0
 13 14  1  0  0  0  0
 15 20  2  0  0  0  0
 15 16  1  0  0  0  0
 16 17  2  0  0  0  0
 16 30  1  0  0  0  0
 17 18  1  0  0  0  0
 17 31  1  0  0  0  0
 18 19  2  0  0  0  0
 18 32  1  0  0  0  0
 19 20  1  0  0  0  0
 19 33  1  0  0  0  0
 20 21  1  0  0  0  0
 21 22  2  0  0  0  0
M  END
$$$$
ZINC03815839
  -OEChem-08230709403D

 46 50  0     0  0  0  0  0  0999 V2000
    0.0919    2.1210    1.3473 C   0  0  0  0  0  0  0  0  0  0  0  0
    1.3632    1.5775    1.2162 C   0  0  0  0  0  0  0  0  0  0  0  0
    2.4164    2.3978    0.8656 C   0  0  0  0  0  0  0  0  0  0  0  0
    2.2299    3.6879    0.6594 N   0  0  0  0  0  0  0  0  0  0  0  0
    1.0345    4.2444    0.7793 C   0  0  0  0  0  0  0  0  0  0  0  0
   -0.0718    3.4769    1.1300 C   0  0  0  0  0  0  0  0  0  0  0  0
    0.8835    5.6076    0.5533 N   0  0  0  0  0  0  0  0  0  0  0  0
    2.1954    6.5280    0.1361 S   0  0  0  0  0  0  0  0  0  0  0  0
    1.7187    7.8537   -0.0499 O   0  0  0  0  0  0  0  0  0  0  0  0
    3.2248    6.2117    1.0632 O   0  0  0  0  0  0  0  0  0  0  0  0
    2.7467    5.9652   -1.4399 C   0  0  0  0  0  0  0  0  0  0  0  0
    3.6915    4.9587   -1.5213 C   0  0  0  0  0  0  0  0  0  0  0  0
    4.1222    4.5118   -2.7549 C   0  0  0  0  0  0  0  0  0  0  0  0
    3.6131    5.0820   -3.9150 C   0  0  0  0  0  0  0  0  0  0  0  0
    2.6679    6.0967   -3.8295 C   0  0  0  0  0  0  0  0  0  0  0  0
    2.2377    6.5351   -2.5927 C   0  0  0  0  0  0  0  0  0  0  0  0
    4.0503    4.6357   -5.1649 N   0  0  0  0  0  0  0  0  0  0  0  0
    4.9769    3.6409   -5.2469 C   0  0  0  0  0  0  0  0  0  0  0  0
    5.5015    3.2948   -6.4588 C   0  0  0  0  0  0  0  0  0  0  0  0
    5.3792    4.0347   -7.7373 C   0  0  0  0  0  0  0  0  0  0  0  0
    6.0831    3.2873   -8.6897 C   0  0  0  0  0  0  0  0  0  0  0  0
    6.1364    3.7559  -10.0028 C   0  0  0  0  0  0  0  0  0  0  0  0
    5.5261    4.9114  -10.3746 C   0  0  0  0  0  0  0  0  0  0  0  0
    4.8052    5.6941   -9.4421 C   0  0  0  0  0  0  0  0  0  0  0  0
    4.7579    5.2105   -8.1168 C   0  0  0  0  0  0  0  0  0  0  0  0
    3.7867    6.4523   -7.3011 S   0  0  0  0  0  0  0  0  0  0  0  0
    3.5177    7.4746   -8.6785 C   0  0  0  0  0  0  0  0  0  0  0  0
    4.1450    6.8552   -9.6381 N   0  0  0  0  0  0  0  0  0  0  0  0
    6.6174    2.1580   -8.0822 N   0  0  0  0  0  0  0  0  0  0  0  0
    6.3127    2.1140   -6.7744 C   0  0  0  0  0  0  0  0  0  0  0  0
    6.6488    1.2449   -5.9891 O   0  0  0  0  0  0  0  0  0  0  0  0
   -0.7492    1.4994    1.6166 H   0  0  0  0  0  0  0  0  0  0  0  0
    1.5254    0.5227    1.3826 H   0  0  0  0  0  0  0  0  0  0  0  0
    3.4058    1.9785    0.7582 H   0  0  0  0  0  0  0  0  0  0  0  0
   -1.0460    3.9331    1.2269 H   0  0  0  0  0  0  0  0  0  0  0  0
    0.0097    6.0197    0.6400 H   0  0  0  0  0  0  0  0  0  0  0  0
    4.0901    4.5189   -0.6190 H   0  0  0  0  0  0  0  0  0  0  0  0
    4.8573    3.7231   -2.8178 H   0  0  0  0  0  0  0  0  0  0  0  0
    2.2698    6.5418   -4.7294 H   0  0  0  0  0  0  0  0  0  0  0  0
    1.5028    7.3235   -2.5255 H   0  0  0  0  0  0  0  0  0  0  0  0
    3.6938    5.0344   -5.9742 H   0  0  0  0  0  0  0  0  0  0  0  0
    5.2967    3.1258   -4.3531 H   0  0  0  0  0  0  0  0  0  0  0  0
    6.6773    3.1853  -10.7432 H   0  0  0  0  0  0  0  0  0  0  0  0
    5.5923    5.2386  -11.4017 H   0  0  0  0  0  0  0  0  0  0  0  0
    2.9640    8.4005   -8.7280 H   0  0  0  0  0  0  0  0  0  0  0  0
    7.1466    1.4882   -8.5429 H   0  0  0  0  0  0  0  0  0  0  0  0
  1  6  2  0  0  0  0
  1  2  1  0  0  0  0
  1 32  1  0  0  0  0
  2  3  2  0  0  0  0
  2 33  1  0  0  0  0
  3  4  1  0  0  0  0
  3 34  1  0  0  0  0
  4  5  2  0  0  0  0
  5  6  1  0  0  0  0
  5  7  1  0  0  0  0
  6 35  1  0  0  0  0
  7  8  1  0  0  0  0
  7 36  1  0  0  0  0
  8  9  2  0  0  0  0
  8 10  2  0  0  0  0
  8 11  1  0  0  0  0
 11 16  2  0  0  0  0
 11 12  1  0  0  0  0
 12 13  2  0  0  0  0
 12 37  1  0  0  0  0
 13 14  1  0  0  0  0
 13 38  1  0  0  0  0
 14 15  2  0  0  0  0
 14 17  1  0  0  0  0
 15 16  1  0  0  0  0
 15 39  1  0  0  0  0
 16 40  1  0  0  0  0
 17 18  1  0  0  0  0
 17 41  1  0  0  0  0
 18 19  2  0  0  0  0
 18 42  1  0  0  0  0
 19 30  1  0  0  0  0
 19 20  1  0  0  0  0
 20 25  2  0  0  0  0
 20 21  1  0  0  0  0
 21 22  2  0  0  0  0
 21 29  1  0  0  0  0
 22 23  1  0  0  0  0
 22 43  1  0  0  0  0
 23 24  2  0  0  0  0
 23 44  1  0  0  0  0
 24 28  1  0  0  0  0
 24 25  1  0  0  0  0
 25 26  1  0  0  0  0
 26 27  1  0  0  0  0
 27 28  2  0  0  0  0
 27 45  1  0  0  0  0
 29 30  1  0  0  0  0
 29 46  1  0  0  0  0
 30 31  2  0  0  0  0
M  END
$$$$
ZINC03815841
  -OEChem-08230709403D

 43 46  0     0  0  0  0  0  0999 V2000
   -1.2189    2.1962    0.0197 C   0  0  0  0  0  0  0  0  0  0  0  0
   -1.1984    3.5781    0.0313 C   0  0  0  0  0  0  0  0  0  0  0  0
   -0.0554    4.2358    0.0240 N   0  0  0  0  0  0  0  0  0  0  0  0
    1.1049    3.6094    0.0104 C   0  0  0  0  0  0  0  0  0  0  0  0
    1.1629    2.2286    0.0029 C   0  0  0  0  0  0  0  0  0  0  0  0
   -0.0184    1.5028    0.0103 C   0  0  0  0  0  0  0  0  0  0  0  0
    0.0021   -0.0041    0.0020 C   0  0  0  0  0  0  0  0  0  0  0  0
    0.0219   -0.4998    1.3805 N   0  0  0  0  0  0  0  0  0  0  0  0
    0.0422   -1.8260    1.6194 C   0  0  0  0  0  0  0  0  0  0  0  0
    0.0441   -2.6118    0.6902 O   0  0  0  0  0  0  0  0  0  0  0  0
    0.0620   -2.3225    3.0000 C   0  0  0  0  0  0  0  0  0  0  0  0
    0.0835   -3.6346    3.3820 C   0  0  0  0  0  0  0  0  0  0  0  0
    0.0971   -3.6548    4.7901 C   0  0  0  0  0  0  0  0  0  0  0  0
    0.0835   -2.3575    5.2180 C   0  0  0  0  0  0  0  0  0  0  0  0
    0.0683   -1.5486    4.1385 N   0  0  0  0  0  0  0  0  0  0  0  0
    0.0608   -0.5789    4.1610 H   0  0  0  0  0  0  0  0  0  0  0  0
    0.1225   -4.8634    5.6510 C   0  0  0  0  0  0  0  0  0  0  0  0
    0.7931   -4.9896    6.8933 C   0  0  0  0  0  0  0  0  0  0  0  0
    0.5656   -6.2516    7.3551 C   0  0  0  0  0  0  0  0  0  0  0  0
   -0.2077   -6.8884    6.4523 N   0  0  0  0  0  0  0  0  0  0  0  0
   -1.0341   -6.2090    4.5942 H   0  0  0  0  0  0  0  0  0  0  0  0
   -0.4781   -6.0054    5.4001 N   0  0  0  0  0  0  0  0  0  0  0  0
    1.5959   -3.9398    7.5676 C   0  0  0  0  0  0  0  0  0  0  0  0
    2.5873   -3.2584    6.8645 C   0  0  0  0  0  0  0  0  0  0  0  0
    3.3288   -2.2785    7.4956 C   0  0  0  0  0  0  0  0  0  0  0  0
    3.0951   -1.9801    8.8268 C   0  0  0  0  0  0  0  0  0  0  0  0
    2.1149   -2.6578    9.5311 C   0  0  0  0  0  0  0  0  0  0  0  0
    1.3648   -3.6361    8.9077 C   0  0  0  0  0  0  0  0  0  0  0  0
    1.8282   -2.2782   11.2006 Cl  0  0  0  0  0  0  0  0  0  0  0  0
    4.5606   -1.4248    6.6195 Cl  0  0  0  0  0  0  0  0  0  0  0  0
   -2.1583    1.6633    0.0212 H   0  0  0  0  0  0  0  0  0  0  0  0
   -2.1292    4.1257    0.0420 H   0  0  0  0  0  0  0  0  0  0  0  0
    2.0206    4.1822    0.0047 H   0  0  0  0  0  0  0  0  0  0  0  0
    2.1163    1.7214   -0.0089 H   0  0  0  0  0  0  0  0  0  0  0  0
   -0.8878   -0.3767   -0.5053 H   0  0  0  0  0  0  0  0  0  0  0  0
    0.8920   -0.3525   -0.5222 H   0  0  0  0  0  0  0  0  0  0  0  0
    0.0204    0.1265    2.1212 H   0  0  0  0  0  0  0  0  0  0  0  0
    0.0896   -4.4937    2.7276 H   0  0  0  0  0  0  0  0  0  0  0  0
    0.0889   -2.0336    6.2482 H   0  0  0  0  0  0  0  0  0  0  0  0
    0.9383   -6.6675    8.2794 H   0  0  0  0  0  0  0  0  0  0  0  0
    2.7734   -3.4937    5.8270 H   0  0  0  0  0  0  0  0  0  0  0  0
    3.6797   -1.2161    9.3178 H   0  0  0  0  0  0  0  0  0  0  0  0
    0.6007   -4.1648    9.4582 H   0  0  0  0  0  0  0  0  0  0  0  0
  1  6  2  0  0  0  0
  1  2  1  0  0  0  0
  1 31  1  0  0  0  0
  2  3  2  0  0  0  0
  2 32  1  0  0  0  0
  3  4  1  0  0  0  0
  4  5  2  0  0  0  0
  4 33  1  0  0  0  0
  5  6  1  0  0  0  0
  5 34  1  0  0  0  0
  6  7  1  0  0  0  0
  7  8  1  0  0  0  0
  7 35  1  0  0  0  0
  7 36  1  0  0  0  0
  8  9  1  0  0  0  0
  8 37  1  0  0  0  0
  9 10  2  0  0  0  0
  9 11  1  0  0  0  0
 11 15  1  0  0  0  0
 11 12  2  0  0  0  0
 12 13  1  0  0  0  0
 12 38  1  0  0  0  0
 13 14  2  0  0  0  0
 13 17  1  0  0  0  0
 14 15  1  0  0  0  0
 14 39  1  0  0  0  0
 15 16  1  0  0  0  0
 17 18  2  0  0  0  0
 17 22  1  0  0  0  0
 18 23  1  0  0  0  0
 18 19  1  0  0  0  0
 19 40  1  0  0  0  0
 19 20  2  0  0  0  0
 20 22  1  0  0  0  0
 21 22  1  0  0  0  0
 23 28  2  0  0  0  0
 23 24  1  0  0  0  0
 24 25  2  0  0  0  0
 24 41  1  0  0  0  0
 25 26  1  0  0  0  0
 25 30  1  0  0  0  0
 26 27  2  0  0  0  0
 26 42  1  0  0  0  0
 27 28  1  0  0  0  0
 27 29  1  0  0  0  0
 28 43  1  0  0  0  0
M  END
$$$$
ZINC03815841
  -OEChem-08230709403D

 43 46  0     0  0  0  0  0  0999 V2000
   -1.2189    2.1962    0.0197 C   0  0  0  0  0  0  0  0  0  0  0  0
   -1.1984    3.5781    0.0313 C   0  0  0  0  0  0  0  0  0  0  0  0
   -0.0554    4.2358    0.0240 N   0  0  0  0  0  0  0  0  0  0  0  0
    1.1049    3.6094    0.0104 C   0  0  0  0  0  0  0  0  0  0  0  0
    1.1629    2.2286    0.0029 C   0  0  0  0  0  0  0  0  0  0  0  0
   -0.0184    1.5028    0.0103 C   0  0  0  0  0  0  0  0  0  0  0  0
    0.0021   -0.0041    0.0020 C   0  0  0  0  0  0  0  0  0  0  0  0
    0.0219   -0.4998    1.3805 N   0  0  0  0  0  0  0  0  0  0  0  0
    0.0422   -1.8260    1.6194 C   0  0  0  0  0  0  0  0  0  0  0  0
    0.0441   -2.6118    0.6902 O   0  0  0  0  0  0  0  0  0  0  0  0
    0.0620   -2.3225    3.0000 C   0  0  0  0  0  0  0  0  0  0  0  0
    0.0835   -3.6346    3.3820 C   0  0  0  0  0  0  0  0  0  0  0  0
    0.0971   -3.6548    4.7901 C   0  0  0  0  0  0  0  0  0  0  0  0
    0.0835   -2.3575    5.2180 C   0  0  0  0  0  0  0  0  0  0  0  0
    0.0683   -1.5486    4.1385 N   0  0  0  0  0  0  0  0  0  0  0  0
    0.0608   -0.5789    4.1610 H   0  0  0  0  0  0  0  0  0  0  0  0
    0.1225   -4.8634    5.6510 C   0  0  0  0  0  0  0  0  0  0  0  0
    0.7931   -4.9896    6.8933 C   0  0  0  0  0  0  0  0  0  0  0  0
    0.5656   -6.2516    7.3551 C   0  0  0  0  0  0  0  0  0  0  0  0
   -0.2077   -6.8884    6.4523 N   0  0  0  0  0  0  0  0  0  0  0  0
   -1.0341   -6.2090    4.5942 H   0  0  0  0  0  0  0  0  0  0  0  0
   -0.4781   -6.0054    5.4001 N   0  0  0  0  0  0  0  0  0  0  0  0
    1.5959   -3.9398    7.5676 C   0  0  0  0  0  0  0  0  0  0  0  0
    2.5873   -3.2584    6.8645 C   0  0  0  0  0  0  0  0  0  0  0  0
    3.3288   -2.2785    7.4956 C   0  0  0  0  0  0  0  0  0  0  0  0
    3.0951   -1.9801    8.8268 C   0  0  0  0  0  0  0  0  0  0  0  0
    2.1149   -2.6578    9.5311 C   0  0  0  0  0  0  0  0  0  0  0  0
    1.3648   -3.6361    8.9077 C   0  0  0  0  0  0  0  0  0  0  0  0
    1.8282   -2.2782   11.2006 Cl  0  0  0  0  0  0  0  0  0  0  0  0
    4.5606   -1.4248    6.6195 Cl  0  0  0  0  0  0  0  0  0  0  0  0
   -2.1583    1.6633    0.0212 H   0  0  0  0  0  0  0  0  0  0  0  0
   -2.1292    4.1257    0.0420 H   0  0  0  0  0  0  0  0  0  0  0  0
    2.0206    4.1822    0.0047 H   0  0  0  0  0  0  0  0  0  0  0  0
    2.1163    1.7214   -0.0089 H   0  0  0  0  0  0  0  0  0  0  0  0
   -0.8878   -0.3767   -0.5053 H   0  0  0  0  0  0  0  0  0  0  0  0
    0.8920   -0.3525   -0.5222 H   0  0  0  0  0  0  0  0  0  0  0  0
    0.0204    0.1265    2.1212 H   0  0  0  0  0  0  0  0  0  0  0  0
    0.0896   -4.4937    2.7276 H   0  0  0  0  0  0  0  0  0  0  0  0
    0.0889   -2.0336    6.2482 H   0  0  0  0  0  0  0  0  0  0  0  0
    0.9383   -6.6675    8.2794 H   0  0  0  0  0  0  0  0  0  0  0  0
    2.7734   -3.4937    5.8270 H   0  0  0  0  0  0  0  0  0  0  0  0
    3.6797   -1.2161    9.3178 H   0  0  0  0  0  0  0  0  0  0  0  0
    0.6007   -4.1648    9.4582 H   0  0  0  0  0  0  0  0  0  0  0  0
  1  6  2  0  0  0  0
  1  2  1  0  0  0  0
  1 31  1  0  0  0  0
  2  3  2  0  0  0  0
  2 32  1  0  0  0  0
  3  4  1  0  0  0  0
  4  5  2  0  0  0  0
  4 33  1  0  0  0  0
  5  6  1  0  0  0  0
  5 34  1  0  0  0  0
  6  7  1  0  0  0  0
  7  8  1  0  0  0  0
  7 35  1  0  0  0  0
  7 36  1  0  0  0  0
  8  9  1  0  0  0  0
  8 37  1  0  0  0  0
  9 10  2  0  0  0  0
  9 11  1  0  0  0  0
 11 15  1  0  0  0  0
 11 12  2  0  0  0  0
 12 13  1  0  0  0  0
 12 38  1  0  0  0  0
 13 14  2  0  0  0  0
 13 17  1  0  0  0  0
 14 15  1  0  0  0  0
 14 39  1  0  0  0  0
 15 16  1  0  0  0  0
 17 18  2  0  0  0  0
 17 22  1  0  0  0  0
 18 23  1  0  0  0  0
 18 19  1  0  0  0  0
 19 40  1  0  0  0  0
 19 20  2  0  0  0  0
 20 22  1  0  0  0  0
 21 22  1  0  0  0  0
 23 28  2  0  0  0  0
 23 24  1  0  0  0  0
 24 25  2  0  0  0  0
 24 41  1  0  0  0  0
 25 26  1  0  0  0  0
 25 30  1  0  0  0  0
 26 27  2  0  0  0  0
 26 42  1  0  0  0  0
 27 28  1  0  0  0  0
 27 29  1  0  0  0  0
 28 43  1  0  0  0  0
M  END
$$$$
ZINC03815846
  -OEChem-08230709403D

 48 51  0     0  0  0  0  0  0999 V2000
    5.5796   -7.5911   -7.8834 C   0  0  0  0  0  0  0  0  0  0  0  0
    4.2555   -6.9560   -7.4540 C   0  0  0  0  0  0  0  0  0  0  0  0
    4.5150   -5.5781   -6.9018 C   0  0  0  0  0  0  0  0  0  0  0  0
    4.6635   -5.3976   -5.5388 C   0  0  0  0  0  0  0  0  0  0  0  0
    4.9075   -4.1373   -5.0299 C   0  0  0  0  0  0  0  0  0  0  0  0
    4.9911   -3.0473   -5.8875 C   0  0  0  0  0  0  0  0  0  0  0  0
    4.8412   -3.2311   -7.2559 C   0  0  0  0  0  0  0  0  0  0  0  0
    4.6037   -4.4961   -7.7596 C   0  0  0  0  0  0  0  0  0  0  0  0
    4.3993   -4.7481   -9.6225 Br  0  0  0  0  0  0  0  0  0  0  0  0
    5.2313   -1.7697   -5.3747 N   0  0  0  0  0  0  0  0  0  0  0  0
    4.7324   -1.4173   -4.1315 C   0  0  0  0  0  0  0  0  0  0  0  0
    5.0705   -0.1708   -3.5585 C   0  0  0  0  0  0  0  0  0  0  0  0
    5.9087    0.7437   -4.2093 C   0  0  0  0  0  0  0  0  0  0  0  0
    6.2015    1.9318   -3.6089 C   0  0  0  0  0  0  0  0  0  0  0  0
    5.6801    2.2519   -2.3577 C   0  0  0  0  0  0  0  0  0  0  0  0
    4.8615    1.3858   -1.6965 C   0  0  0  0  0  0  0  0  0  0  0  0
    4.5356    0.1572   -2.2875 C   0  0  0  0  0  0  0  0  0  0  0  0
    3.7002   -0.7827   -1.6523 C   0  0  0  0  0  0  0  0  0  0  0  0
    3.4332   -1.9572   -2.2849 C   0  0  0  0  0  0  0  0  0  0  0  0
    3.9390   -2.2441   -3.4773 N   0  0  0  0  0  0  0  0  0  0  0  0
    3.1074   -0.4895   -0.2982 C   0  0  0  0  0  0  0  0  0  0  0  0
    1.8403    0.3087   -0.4666 C   0  0  0  0  0  0  0  0  0  0  0  0
    0.6136   -0.3270   -0.6030 C   0  0  0  0  0  0  0  0  0  0  0  0
   -0.5280    0.4339   -0.7555 C   0  0  0  0  0  0  0  0  0  0  0  0
   -0.4652    1.7520   -0.7728 N   0  0  0  0  0  0  0  0  0  0  0  0
    0.6842    2.3936   -0.6455 C   0  0  0  0  0  0  0  0  0  0  0  0
    1.8729    1.6919   -0.4888 C   0  0  0  0  0  0  0  0  0  0  0  0
    0.7027    3.7500   -0.6682 O   0  0  0  0  0  0  0  0  0  0  0  0
    6.0465   -6.9740   -8.6511 H   0  0  0  0  0  0  0  0  0  0  0  0
    6.2438   -7.6639   -7.0222 H   0  0  0  0  0  0  0  0  0  0  0  0
    5.3920   -8.5877   -8.2828 H   0  0  0  0  0  0  0  0  0  0  0  0
    3.7887   -7.5731   -6.6863 H   0  0  0  0  0  0  0  0  0  0  0  0
    3.5914   -6.8832   -8.3152 H   0  0  0  0  0  0  0  0  0  0  0  0
    4.5937   -6.2443   -4.8719 H   0  0  0  0  0  0  0  0  0  0  0  0
    5.0285   -3.9983   -3.9657 H   0  0  0  0  0  0  0  0  0  0  0  0
    4.9104   -2.3866   -7.9256 H   0  0  0  0  0  0  0  0  0  0  0  0
    5.7473   -1.1296   -5.8894 H   0  0  0  0  0  0  0  0  0  0  0  0
    6.3202    0.5088   -5.1798 H   0  0  0  0  0  0  0  0  0  0  0  0
    6.8478    2.6362   -4.1114 H   0  0  0  0  0  0  0  0  0  0  0  0
    5.9283    3.2004   -1.9047 H   0  0  0  0  0  0  0  0  0  0  0  0
    4.4633    1.6459   -0.7269 H   0  0  0  0  0  0  0  0  0  0  0  0
    2.7898   -2.6777   -1.8019 H   0  0  0  0  0  0  0  0  0  0  0  0
    3.8211    0.0826    0.2947 H   0  0  0  0  0  0  0  0  0  0  0  0
    2.8815   -1.4268    0.2102 H   0  0  0  0  0  0  0  0  0  0  0  0
    0.5532   -1.4052   -0.5899 H   0  0  0  0  0  0  0  0  0  0  0  0
   -1.4848   -0.0556   -0.8620 H   0  0  0  0  0  0  0  0  0  0  0  0
    2.8099    2.2189   -0.3857 H   0  0  0  0  0  0  0  0  0  0  0  0
    1.6431    4.0724   -0.5603 H   0  0  0  0  0  0  0  0  0  0  0  0
  1  2  1  0  0  0  0
  1 29  1  0  0  0  0
  1 30  1  0  0  0  0
  1 31  1  0  0  0  0
  2  3  1  0  0  0  0
  2 32  1  0  0  0  0
  2 33  1  0  0  0  0
  3  8  2  0  0  0  0
  3  4  1  0  0  0  0
  4  5  2  0  0  0  0
  4 34  1  0  0  0  0
  5  6  1  0  0  0  0
  5 35  1  0  0  0  0
  6  7  2  0  0  0  0
  6 10  1  0  0  0  0
  7  8  1  0  0  0  0
  7 36  1  0  0  0  0
  8  9  1  0  0  0  0
 10 11  1  0  0  0  0
 10 37  1  0  0  0  0
 11 20  2  0  0  0  0
 11 12  1  0  0  0  0
 12 17  2  0  0  0  0
 12 13  1  0  0  0  0
 13 14  2  0  0  0  0
 13 38  1  0  0  0  0
 14 15  1  0  0  0  0
 14 39  1  0  0  0  0
 15 16  2  0  0  0  0
 15 40  1  0  0  0  0
 16 17  1  0  0  0  0
 16 41  1  0  0  0  0
 17 18  1  0  0  0  0
 18 19  2  0  0  0  0
 18 21  1  0  0  0  0
 19 20  1  0  0  0  0
 19 42  1  0  0  0  0
 21 22  1  0  0  0  0
 21 43  1  0  0  0  0
 21 44  1  0  0  0  0
 22 27  2  0  0  0  0
 22 23  1  0  0  0  0
 23 45  1  0  0  0  0
 23 24  2  0  0  0  0
 24 46  1  0  0  0  0
 24 25  1  0  0  0  0
 25 26  2  0  0  0  0
 26 28  1  0  0  0  0
 26 27  1  0  0  0  0
 27 47  1  0  0  0  0
 28 48  1  0  0  0  0
M  END
$$$$
ZINC03815846
  -OEChem-08230709403D

 48 51  0     0  0  0  0  0  0999 V2000
    5.5796   -7.5911   -7.8834 C   0  0  0  0  0  0  0  0  0  0  0  0
    4.2555   -6.9560   -7.4540 C   0  0  0  0  0  0  0  0  0  0  0  0
    4.5150   -5.5781   -6.9018 C   0  0  0  0  0  0  0  0  0  0  0  0
    4.6635   -5.3976   -5.5388 C   0  0  0  0  0  0  0  0  0  0  0  0
    4.9075   -4.1373   -5.0299 C   0  0  0  0  0  0  0  0  0  0  0  0
    4.9911   -3.0473   -5.8875 C   0  0  0  0  0  0  0  0  0  0  0  0
    4.8412   -3.2311   -7.2559 C   0  0  0  0  0  0  0  0  0  0  0  0
    4.6037   -4.4961   -7.7596 C   0  0  0  0  0  0  0  0  0  0  0  0
    4.3993   -4.7481   -9.6225 Br  0  0  0  0  0  0  0  0  0  0  0  0
    5.2313   -1.7697   -5.3747 N   0  0  0  0  0  0  0  0  0  0  0  0
    4.7324   -1.4173   -4.1315 C   0  0  0  0  0  0  0  0  0  0  0  0
    5.0705   -0.1708   -3.5585 C   0  0  0  0  0  0  0  0  0  0  0  0
    5.9087    0.7437   -4.2093 C   0  0  0  0  0  0  0  0  0  0  0  0
    6.2015    1.9318   -3.6089 C   0  0  0  0  0  0  0  0  0  0  0  0
    5.6801    2.2519   -2.3577 C   0  0  0  0  0  0  0  0  0  0  0  0
    4.8615    1.3858   -1.6965 C   0  0  0  0  0  0  0  0  0  0  0  0
    4.5356    0.1572   -2.2875 C   0  0  0  0  0  0  0  0  0  0  0  0
    3.7002   -0.7827   -1.6523 C   0  0  0  0  0  0  0  0  0  0  0  0
    3.4332   -1.9572   -2.2849 C   0  0  0  0  0  0  0  0  0  0  0  0
    3.9390   -2.2441   -3.4773 N   0  0  0  0  0  0  0  0  0  0  0  0
    3.1074   -0.4895   -0.2982 C   0  0  0  0  0  0  0  0  0  0  0  0
    1.8403    0.3087   -0.4666 C   0  0  0  0  0  0  0  0  0  0  0  0
    0.6136   -0.3270   -0.6030 C   0  0  0  0  0  0  0  0  0  0  0  0
   -0.5280    0.4339   -0.7555 C   0  0  0  0  0  0  0  0  0  0  0  0
   -0.4652    1.7520   -0.7728 N   0  0  0  0  0  0  0  0  0  0  0  0
    0.6842    2.3936   -0.6455 C   0  0  0  0  0  0  0  0  0  0  0  0
    1.8729    1.6919   -0.4888 C   0  0  0  0  0  0  0  0  0  0  0  0
    0.7027    3.7500   -0.6682 O   0  0  0  0  0  0  0  0  0  0  0  0
    6.0465   -6.9740   -8.6511 H   0  0  0  0  0  0  0  0  0  0  0  0
    6.2438   -7.6639   -7.0222 H   0  0  0  0  0  0  0  0  0  0  0  0
    5.3920   -8.5877   -8.2828 H   0  0  0  0  0  0  0  0  0  0  0  0
    3.7887   -7.5731   -6.6863 H   0  0  0  0  0  0  0  0  0  0  0  0
    3.5914   -6.8832   -8.3152 H   0  0  0  0  0  0  0  0  0  0  0  0
    4.5937   -6.2443   -4.8719 H   0  0  0  0  0  0  0  0  0  0  0  0
    5.0285   -3.9983   -3.9657 H   0  0  0  0  0  0  0  0  0  0  0  0
    4.9104   -2.3866   -7.9256 H   0  0  0  0  0  0  0  0  0  0  0  0
    5.7473   -1.1296   -5.8894 H   0  0  0  0  0  0  0  0  0  0  0  0
    6.3202    0.5088   -5.1798 H   0  0  0  0  0  0  0  0  0  0  0  0
    6.8478    2.6362   -4.1114 H   0  0  0  0  0  0  0  0  0  0  0  0
    5.9283    3.2004   -1.9047 H   0  0  0  0  0  0  0  0  0  0  0  0
    4.4633    1.6459   -0.7269 H   0  0  0  0  0  0  0  0  0  0  0  0
    2.7898   -2.6777   -1.8019 H   0  0  0  0  0  0  0  0  0  0  0  0
    3.8211    0.0826    0.2947 H   0  0  0  0  0  0  0  0  0  0  0  0
    2.8815   -1.4268    0.2102 H   0  0  0  0  0  0  0  0  0  0  0  0
    0.5532   -1.4052   -0.5899 H   0  0  0  0  0  0  0  0  0  0  0  0
   -1.4848   -0.0556   -0.8620 H   0  0  0  0  0  0  0  0  0  0  0  0
    2.8099    2.2189   -0.3857 H   0  0  0  0  0  0  0  0  0  0  0  0
    1.6431    4.0724   -0.5603 H   0  0  0  0  0  0  0  0  0  0  0  0
  1  2  1  0  0  0  0
  1 29  1  0  0  0  0
  1 30  1  0  0  0  0
  1 31  1  0  0  0  0
  2  3  1  0  0  0  0
  2 32  1  0  0  0  0
  2 33  1  0  0  0  0
  3  8  2  0  0  0  0
  3  4  1  0  0  0  0
  4  5  2  0  0  0  0
  4 34  1  0  0  0  0
  5  6  1  0  0  0  0
  5 35  1  0  0  0  0
  6  7  2  0  0  0  0
  6 10  1  0  0  0  0
  7  8  1  0  0  0  0
  7 36  1  0  0  0  0
  8  9  1  0  0  0  0
 10 11  1  0  0  0  0
 10 37  1  0  0  0  0
 11 20  2  0  0  0  0
 11 12  1  0  0  0  0
 12 17  2  0  0  0  0
 12 13  1  0  0  0  0
 13 14  2  0  0  0  0
 13 38  1  0  0  0  0
 14 15  1  0  0  0  0
 14 39  1  0  0  0  0
 15 16  2  0  0  0  0
 15 40  1  0  0  0  0
 16 17  1  0  0  0  0
 16 41  1  0  0  0  0
 17 18  1  0  0  0  0
 18 19  2  0  0  0  0
 18 21  1  0  0  0  0
 19 20  1  0  0  0  0
 19 42  1  0  0  0  0
 21 22  1  0  0  0  0
 21 43  1  0  0  0  0
 21 44  1  0  0  0  0
 22 27  2  0  0  0  0
 22 23  1  0  0  0  0
 23 45  1  0  0  0  0
 23 24  2  0  0  0  0
 24 46  1  0  0  0  0
 24 25  1  0  0  0  0
 25 26  2  0  0  0  0
 26 28  1  0  0  0  0
 26 27  1  0  0  0  0
 27 47  1  0  0  0  0
 28 48  1  0  0  0  0
M  END
$$$$
ZINC03816601
  -OEChem-08230709403D

 60 64  0     0  0  0  0  0  0999 V2000
    0.0021   -0.0041    0.0020 C   0  0  0  0  0  0  0  0  0  0  0  0
   -0.0167    1.3786    0.0096 C   0  0  0  0  0  0  0  0  0  0  0  0
    1.1691    2.0868    0.0021 C   0  0  0  0  0  0  0  0  0  0  0  0
    2.3808    1.4090   -0.0132 C   0  0  0  0  0  0  0  0  0  0  0  0
    2.3963    0.0206   -0.0203 C   0  0  0  0  0  0  0  0  0  0  0  0
    1.2072   -0.6820   -0.0127 C   0  0  0  0  0  0  0  0  0  0  0  0
    3.5854    2.1246   -0.0214 N   0  0  0  0  0  0  0  0  0  0  0  0
    4.6487    1.9260    0.8079 C   0  0  0  0  0  0  0  0  0  0  0  0
    5.6001    2.7664    0.5242 N   0  0  0  0  0  0  0  0  0  0  0  0
    5.2139    3.5628   -0.5067 C   0  0  0  0  0  0  0  0  0  0  0  0
    3.9179    3.1582   -0.8753 C   0  0  0  0  0  0  0  0  0  0  0  0
    3.2585    3.7954   -1.9189 C   0  0  0  0  0  0  0  0  0  0  0  0
    3.8673    4.8147   -2.5937 C   0  0  0  0  0  0  0  0  0  0  0  0
    5.1574    5.2275   -2.2422 C   0  0  0  0  0  0  0  0  0  0  0  0
    5.8295    4.6074   -1.1955 C   0  0  0  0  0  0  0  0  0  0  0  0
    5.8056    6.3344   -2.9828 C   0  0  0  0  0  0  0  0  0  0  0  0
    6.1289    6.1912   -4.3511 C   0  0  0  0  0  0  0  0  0  0  0  0
    6.7195    7.2104   -5.0107 C   0  0  0  0  0  0  0  0  0  0  0  0
    7.0099    8.3776   -4.3778 N   0  0  0  0  0  0  0  0  0  0  0  0
    6.7193    8.5552   -3.0759 C   0  0  0  0  0  0  0  0  0  0  0  0
    6.9907    9.6132   -2.5302 O   0  0  0  0  0  0  0  0  0  0  0  0
    6.1003    7.5311   -2.3465 C   0  0  0  0  0  0  0  0  0  0  0  0
    7.6512    9.4615   -5.1262 C   0  0  0  0  0  0  0  0  0  0  0  0
    6.5774   10.3571   -5.7474 C   0  0  0  0  0  0  0  0  0  0  0  0
    7.2471   11.4892   -6.5290 C   0  0  0  0  0  0  0  0  0  0  0  0
    5.4482   11.6211   -8.1437 C   0  0  0  0  0  0  0  0  0  0  0  0
    4.2947   12.4971   -8.6376 C   0  0  0  0  0  0  0  0  0  0  0  0
    4.8601   13.7923   -9.2271 C   0  0  0  0  0  0  0  0  0  0  0  0
    5.6954   14.5070   -8.1612 C   0  0  0  0  0  0  0  0  0  0  0  0
    6.8083   13.5726   -7.6810 C   0  0  0  0  0  0  0  0  0  0  0  0
   -0.9264   -0.5556    0.0080 H   0  0  0  0  0  0  0  0  0  0  0  0
   -0.9595    1.9053    0.0170 H   0  0  0  0  0  0  0  0  0  0  0  0
    1.1538    3.1667    0.0077 H   0  0  0  0  0  0  0  0  0  0  0  0
    3.3373   -0.5094   -0.0322 H   0  0  0  0  0  0  0  0  0  0  0  0
    1.2187   -1.7619   -0.0186 H   0  0  0  0  0  0  0  0  0  0  0  0
    4.6944    1.1798    1.5873 H   0  0  0  0  0  0  0  0  0  0  0  0
    2.2627    3.4838   -2.1973 H   0  0  0  0  0  0  0  0  0  0  0  0
    3.3493    5.3060   -3.4041 H   0  0  0  0  0  0  0  0  0  0  0  0
    6.8258    4.9247   -0.9251 H   0  0  0  0  0  0  0  0  0  0  0  0
    5.9039    5.2697   -4.8675 H   0  0  0  0  0  0  0  0  0  0  0  0
    6.9645    7.0967   -6.0563 H   0  0  0  0  0  0  0  0  0  0  0  0
    5.8604    7.6700   -1.3027 H   0  0  0  0  0  0  0  0  0  0  0  0
    8.2708   10.0520   -4.4513 H   0  0  0  0  0  0  0  0  0  0  0  0
    8.2735    9.0396   -5.9153 H   0  0  0  0  0  0  0  0  0  0  0  0
    5.9577    9.7667   -6.4223 H   0  0  0  0  0  0  0  0  0  0  0  0
    5.9550   10.7791   -4.9583 H   0  0  0  0  0  0  0  0  0  0  0  0
    7.8668   12.0796   -5.8541 H   0  0  0  0  0  0  0  0  0  0  0  0
    7.8695   11.0672   -7.3181 H   0  0  0  0  0  0  0  0  0  0  0  0
    6.0999   11.3725   -8.9813 H   0  0  0  0  0  0  0  0  0  0  0  0
    5.0483   10.7044   -7.7104 H   0  0  0  0  0  0  0  0  0  0  0  0
    3.6350   12.7347   -7.8031 H   0  0  0  0  0  0  0  0  0  0  0  0
    3.7337   11.9629   -9.4044 H   0  0  0  0  0  0  0  0  0  0  0  0
    4.0400   14.4382   -9.5407 H   0  0  0  0  0  0  0  0  0  0  0  0
    5.4888   13.5586  -10.0863 H   0  0  0  0  0  0  0  0  0  0  0  0
    5.0577   14.7761   -7.3192 H   0  0  0  0  0  0  0  0  0  0  0  0
    6.1356   15.4082   -8.5877 H   0  0  0  0  0  0  0  0  0  0  0  0
    7.3961   14.0733   -6.9117 H   0  0  0  0  0  0  0  0  0  0  0  0
    7.4535   13.3149   -8.5209 H   0  0  0  0  0  0  0  0  0  0  0  0
    6.1978   12.3567   -7.1030 N   0  3  0  0  0  0  0  0  0  0  0  0
    5.5484   12.6325   -6.3571 H   0  0  0  0  0  0  0  0  0  0  0  0
  1  6  2  0  0  0  0
  1  2  1  0  0  0  0
  1 31  1  0  0  0  0
  2  3  2  0  0  0  0
  2 32  1  0  0  0  0
  3  4  1  0  0  0  0
  3 33  1  0  0  0  0
  4  5  2  0  0  0  0
  4  7  1  0  0  0  0
  5  6  1  0  0  0  0
  5 34  1  0  0  0  0
  6 35  1  0  0  0  0
  7 11  1  0  0  0  0
  7  8  1  0  0  0  0
  8  9  2  0  0  0  0
  8 36  1  0  0  0  0
  9 10  1  0  0  0  0
 10 15  2  0  0  0  0
 10 11  1  0  0  0  0
 11 12  2  0  0  0  0
 12 13  1  0  0  0  0
 12 37  1  0  0  0  0
 13 14  2  0  0  0  0
 13 38  1  0  0  0  0
 14 15  1  0  0  0  0
 14 16  1  0  0  0  0
 15 39  1  0  0  0  0
 16 22  2  0  0  0  0
 16 17  1  0  0  0  0
 17 18  2  0  0  0  0
 17 40  1  0  0  0  0
 18 19  1  0  0  0  0
 18 41  1  0  0  0  0
 19 20  1  0  0  0  0
 19 23  1  0  0  0  0
 20 21  2  0  0  0  0
 20 22  1  0  0  0  0
 22 42  1  0  0  0  0
 23 24  1  0  0  0  0
 23 43  1  0  0  0  0
 23 44  1  0  0  0  0
 24 25  1  0  0  0  0
 24 45  1  0  0  0  0
 24 46  1  0  0  0  0
 25 47  1  0  0  0  0
 25 48  1  0  0  0  0
 25 59  1  0  0  0  0
 26 27  1  0  0  0  0
 26 49  1  0  0  0  0
 26 50  1  0  0  0  0
 26 59  1  0  0  0  0
 27 28  1  0  0  0  0
 27 51  1  0  0  0  0
 27 52  1  0  0  0  0
 28 29  1  0  0  0  0
 28 53  1  0  0  0  0
 28 54  1  0  0  0  0
 29 30  1  0  0  0  0
 29 55  1  0  0  0  0
 29 56  1  0  0  0  0
 30 57  1  0  0  0  0
 30 58  1  0  0  0  0
 30 59  1  0  0  0  0
 59 60  1  0  0  0  0
M  CHG  1  59   1
M  END
$$$$
ZINC03832384
  -OEChem-08230709403D

 58 60  0     0  0  0  0  0  0999 V2000
    8.4018    6.7069    2.9038 C   0  0  0  0  0  0  0  0  0  0  0  0
    7.0834    6.0135    3.2531 C   0  0  0  0  0  0  0  0  0  0  0  0
    6.3023    5.7266    1.9692 C   0  0  0  0  0  0  0  0  0  0  0  0
    4.9839    5.0333    2.3185 C   0  0  0  0  0  0  0  0  0  0  0  0
    4.2359    4.7585    1.0892 N   0  0  0  0  0  0  0  0  0  0  0  0
    3.0358    4.1485    1.1527 C   0  0  0  0  0  0  0  0  0  0  0  0
    2.5739    3.8261    2.2303 O   0  0  0  0  0  0  0  0  0  0  0  0
    2.3477    3.8958    0.0217 N   0  0  0  0  0  0  0  0  0  0  0  0
    1.1393    3.1876    0.0799 C   0  0  0  0  0  0  0  0  0  0  0  0
    0.3821    3.2007    1.2434 C   0  0  0  0  0  0  0  0  0  0  0  0
   -0.8082    2.5030    1.3004 C   0  0  0  0  0  0  0  0  0  0  0  0
   -1.2503    1.7922    0.1937 C   0  0  0  0  0  0  0  0  0  0  0  0
   -0.4921    1.7739   -0.9679 C   0  0  0  0  0  0  0  0  0  0  0  0
    0.6991    2.4720   -1.0266 C   0  0  0  0  0  0  0  0  0  0  0  0
    1.6453    2.4543   -2.4819 Cl  0  0  0  0  0  0  0  0  0  0  0  0
   -2.4248    1.1098    0.2491 O   0  0  0  0  0  0  0  0  0  0  0  0
   -3.5776    1.8205    0.1820 C   0  0  0  0  0  0  0  0  0  0  0  0
   -3.5617    3.1858   -0.0452 C   0  0  0  0  0  0  0  0  0  0  0  0
   -4.7586    3.8872   -0.1088 C   0  0  0  0  0  0  0  0  0  0  0  0
   -5.9186    3.2914    0.0412 N   0  0  0  0  0  0  0  0  0  0  0  0
   -6.0079    1.9750    0.2636 C   0  0  0  0  0  0  0  0  0  0  0  0
   -4.8319    1.1893    0.3360 C   0  0  0  0  0  0  0  0  0  0  0  0
   -4.9289   -0.1922    0.5629 C   0  0  0  0  0  0  0  0  0  0  0  0
   -6.1575   -0.7685    0.7065 C   0  0  0  0  0  0  0  0  0  0  0  0
   -7.3243    0.0061    0.6293 C   0  0  0  0  0  0  0  0  0  0  0  0
   -7.2581    1.3534    0.4214 C   0  0  0  0  0  0  0  0  0  0  0  0
   -8.5362   -0.5910    0.7751 O   0  0  0  0  0  0  0  0  0  0  0  0
   -9.6884    0.2496    0.6866 C   0  0  0  0  0  0  0  0  0  0  0  0
  -10.9509   -0.5941    0.8743 C   0  0  0  0  0  0  0  0  0  0  0  0
  -10.9739   -1.1287    2.1993 O   0  0  0  0  0  0  0  0  0  0  0  0
   -6.2516   -2.1070    0.9263 O   0  0  0  0  0  0  0  0  0  0  0  0
   -5.0273   -2.8410    0.9942 C   0  0  0  0  0  0  0  0  0  0  0  0
    8.9926    6.0591    2.2561 H   0  0  0  0  0  0  0  0  0  0  0  0
    8.1938    7.6443    2.3879 H   0  0  0  0  0  0  0  0  0  0  0  0
    8.9583    6.9113    3.8184 H   0  0  0  0  0  0  0  0  0  0  0  0
    6.4927    6.6613    3.9007 H   0  0  0  0  0  0  0  0  0  0  0  0
    7.2915    5.0762    3.7690 H   0  0  0  0  0  0  0  0  0  0  0  0
    6.8930    5.0788    1.3215 H   0  0  0  0  0  0  0  0  0  0  0  0
    6.0942    6.6640    1.4533 H   0  0  0  0  0  0  0  0  0  0  0  0
    4.3932    5.6811    2.9662 H   0  0  0  0  0  0  0  0  0  0  0  0
    5.1920    4.0959    2.8344 H   0  0  0  0  0  0  0  0  0  0  0  0
    4.6044    5.0157    0.2296 H   0  0  0  0  0  0  0  0  0  0  0  0
    2.6886    4.2039   -0.8326 H   0  0  0  0  0  0  0  0  0  0  0  0
    0.7237    3.7568    2.1038 H   0  0  0  0  0  0  0  0  0  0  0  0
   -1.3973    2.5137    2.2055 H   0  0  0  0  0  0  0  0  0  0  0  0
   -0.8349    1.2177   -1.8279 H   0  0  0  0  0  0  0  0  0  0  0  0
   -2.6224    3.7035   -0.1722 H   0  0  0  0  0  0  0  0  0  0  0  0
   -4.7343    4.9521   -0.2869 H   0  0  0  0  0  0  0  0  0  0  0  0
   -4.0357   -0.7963    0.6238 H   0  0  0  0  0  0  0  0  0  0  0  0
   -8.1646    1.9378    0.3644 H   0  0  0  0  0  0  0  0  0  0  0  0
   -9.6423    1.0124    1.4639 H   0  0  0  0  0  0  0  0  0  0  0  0
   -9.7141    0.7291   -0.2920 H   0  0  0  0  0  0  0  0  0  0  0  0
  -11.8312    0.0297    0.7189 H   0  0  0  0  0  0  0  0  0  0  0  0
  -10.9525   -1.4111    0.1528 H   0  0  0  0  0  0  0  0  0  0  0  0
  -11.7483   -1.6757    2.3894 H   0  0  0  0  0  0  0  0  0  0  0  0
   -4.4881   -2.7359    0.0528 H   0  0  0  0  0  0  0  0  0  0  0  0
   -4.4156   -2.4527    1.8086 H   0  0  0  0  0  0  0  0  0  0  0  0
   -5.2445   -3.8940    1.1731 H   0  0  0  0  0  0  0  0  0  0  0  0
  1  2  1  0  0  0  0
  1 33  1  0  0  0  0
  1 34  1  0  0  0  0
  1 35  1  0  0  0  0
  2  3  1  0  0  0  0
  2 36  1  0  0  0  0
  2 37  1  0  0  0  0
  3  4  1  0  0  0  0
  3 38  1  0  0  0  0
  3 39  1  0  0  0  0
  4  5  1  0  0  0  0
  4 40  1  0  0  0  0
  4 41  1  0  0  0  0
  5  6  1  0  0  0  0
  5 42  1  0  0  0  0
  6  7  2  0  0  0  0
  6  8  1  0  0  0  0
  8  9  1  0  0  0  0
  8 43  1  0  0  0  0
  9 14  2  0  0  0  0
  9 10  1  0  0  0  0
 10 11  2  0  0  0  0
 10 44  1  0  0  0  0
 11 12  1  0  0  0  0
 11 45  1  0  0  0  0
 12 13  2  0  0  0  0
 12 16  1  0  0  0  0
 13 14  1  0  0  0  0
 13 46  1  0  0  0  0
 14 15  1  0  0  0  0
 16 17  1  0  0  0  0
 17 22  2  0  0  0  0
 17 18  1  0  0  0  0
 18 19  2  0  0  0  0
 18 47  1  0  0  0  0
 19 20  1  0  0  0  0
 19 48  1  0  0  0  0
 20 21  2  0  0  0  0
 21 26  1  0  0  0  0
 21 22  1  0  0  0  0
 22 23  1  0  0  0  0
 23 24  2  0  0  0  0
 23 49  1  0  0  0  0
 24 25  1  0  0  0  0
 24 31  1  0  0  0  0
 25 26  2  0  0  0  0
 25 27  1  0  0  0  0
 26 50  1  0  0  0  0
 27 28  1  0  0  0  0
 28 29  1  0  0  0  0
 28 51  1  0  0  0  0
 28 52  1  0  0  0  0
 29 30  1  0  0  0  0
 29 53  1  0  0  0  0
 29 54  1  0  0  0  0
 30 55  1  0  0  0  0
 31 32  1  0  0  0  0
 32 56  1  0  0  0  0
 32 57  1  0  0  0  0
 32 58  1  0  0  0  0
M  END
$$$$
ZINC03832385
  -OEChem-08230709403D

 42 45  0     0  0  0  0  0  0999 V2000
    5.9991    4.2458   -6.7244 C   0  0  0  0  0  0  0  0  0  0  0  0
    6.9055    3.3365   -7.2329 C   0  0  0  0  0  0  0  0  0  0  0  0
    6.8398    2.0068   -6.8550 C   0  0  0  0  0  0  0  0  0  0  0  0
    5.8700    1.5857   -5.9621 C   0  0  0  0  0  0  0  0  0  0  0  0
    4.9645    2.4917   -5.4460 C   0  0  0  0  0  0  0  0  0  0  0  0
    5.0279    3.8269   -5.8240 C   0  0  0  0  0  0  0  0  0  0  0  0
    4.1123    4.7462   -5.3035 N   0  0  0  0  0  0  0  0  0  0  0  0
    3.6608    4.6126   -3.9992 C   0  0  0  0  0  0  0  0  0  0  0  0
    2.6455    5.4601   -3.4978 C   0  0  0  0  0  0  0  0  0  0  0  0
    2.0494    6.4610   -4.2692 C   0  0  0  0  0  0  0  0  0  0  0  0
    1.0642    7.2489   -3.7078 C   0  0  0  0  0  0  0  0  0  0  0  0
    0.6614    7.0537   -2.3816 C   0  0  0  0  0  0  0  0  0  0  0  0
    1.2288    6.0845   -1.6124 C   0  0  0  0  0  0  0  0  0  0  0  0
    2.2314    5.2685   -2.1537 C   0  0  0  0  0  0  0  0  0  0  0  0
    2.8599    4.2491   -1.4148 C   0  0  0  0  0  0  0  0  0  0  0  0
    3.7960    3.5283   -1.9879 N   0  0  0  0  0  0  0  0  0  0  0  0
    4.1712    3.6916   -3.2016 N   0  0  0  0  0  0  0  0  0  0  0  0
    2.4681    3.9920    0.0175 C   0  0  0  0  0  0  0  0  0  0  0  0
    1.3505    2.9819    0.0590 C   0  0  0  0  0  0  0  0  0  0  0  0
    1.6231    1.6248    0.1389 C   0  0  0  0  0  0  0  0  0  0  0  0
    0.5723    0.7279    0.1754 C   0  0  0  0  0  0  0  0  0  0  0  0
   -0.6764    1.1495    0.1302 N   0  0  0  0  0  0  0  0  0  0  0  0
   -0.9729    2.4325    0.0592 C   0  0  0  0  0  0  0  0  0  0  0  0
    0.0253    3.3875    0.0187 C   0  0  0  0  0  0  0  0  0  0  0  0
    0.4631    8.2505   -4.4712 N   0  0  0  0  0  0  0  0  0  0  0  0
    7.9764    0.8651   -7.5018 Cl  0  0  0  0  0  0  0  0  0  0  0  0
    6.0480    5.2825   -7.0232 H   0  0  0  0  0  0  0  0  0  0  0  0
    7.6639    3.6625   -7.9294 H   0  0  0  0  0  0  0  0  0  0  0  0
    5.8214    0.5475   -5.6684 H   0  0  0  0  0  0  0  0  0  0  0  0
    4.2081    2.1626   -4.7490 H   0  0  0  0  0  0  0  0  0  0  0  0
    3.7928    5.4776   -5.8548 H   0  0  0  0  0  0  0  0  0  0  0  0
    2.3555    6.6165   -5.2932 H   0  0  0  0  0  0  0  0  0  0  0  0
   -0.1109    7.6816   -1.9623 H   0  0  0  0  0  0  0  0  0  0  0  0
    0.9081    5.9451   -0.5905 H   0  0  0  0  0  0  0  0  0  0  0  0
    2.1336    4.9229    0.4754 H   0  0  0  0  0  0  0  0  0  0  0  0
    3.3275    3.6058    0.5656 H   0  0  0  0  0  0  0  0  0  0  0  0
    2.6437    1.2730    0.1718 H   0  0  0  0  0  0  0  0  0  0  0  0
    0.7762   -0.3309    0.2373 H   0  0  0  0  0  0  0  0  0  0  0  0
   -2.0076    2.7403    0.0282 H   0  0  0  0  0  0  0  0  0  0  0  0
   -0.2238    4.4366   -0.0439 H   0  0  0  0  0  0  0  0  0  0  0  0
    0.7380    8.3902   -5.3909 H   0  0  0  0  0  0  0  0  0  0  0  0
   -0.2295    8.8071   -4.0821 H   0  0  0  0  0  0  0  0  0  0  0  0
  1  6  2  0  0  0  0
  1  2  1  0  0  0  0
  1 27  1  0  0  0  0
  2  3  2  0  0  0  0
  2 28  1  0  0  0  0
  3  4  1  0  0  0  0
  3 26  1  0  0  0  0
  4  5  2  0  0  0  0
  4 29  1  0  0  0  0
  5  6  1  0  0  0  0
  5 30  1  0  0  0  0
  6  7  1  0  0  0  0
  7  8  1  0  0  0  0
  7 31  1  0  0  0  0
  8 17  2  0  0  0  0
  8  9  1  0  0  0  0
  9 14  2  0  0  0  0
  9 10  1  0  0  0  0
 10 11  2  0  0  0  0
 10 32  1  0  0  0  0
 11 12  1  0  0  0  0
 11 25  1  0  0  0  0
 12 13  2  0  0  0  0
 12 33  1  0  0  0  0
 13 14  1  0  0  0  0
 13 34  1  0  0  0  0
 14 15  1  0  0  0  0
 15 16  2  0  0  0  0
 15 18  1  0  0  0  0
 16 17  1  0  0  0  0
 18 19  1  0  0  0  0
 18 35  1  0  0  0  0
 18 36  1  0  0  0  0
 19 24  2  0  0  0  0
 19 20  1  0  0  0  0
 20 21  2  0  0  0  0
 20 37  1  0  0  0  0
 21 22  1  0  0  0  0
 21 38  1  0  0  0  0
 22 23  2  0  0  0  0
 23 24  1  0  0  0  0
 23 39  1  0  0  0  0
 24 40  1  0  0  0  0
 25 41  1  0  0  0  0
 25 42  1  0  0  0  0
M  END
$$$$
ZINC03832386
  -OEChem-08230709403D

 45 48  0     0  0  0  0  0  0999 V2000
   -1.2450    1.7889    0.1666 C   0  0  0  0  0  0  0  0  0  0  0  0
   -0.0381    1.1174   -0.0135 C   0  0  0  0  0  0  0  0  0  0  0  0
    1.1469    1.7909   -0.0195 C   0  0  0  0  0  0  0  0  0  0  0  0
    1.1529    3.1796    0.1641 C   0  0  0  0  0  0  0  0  0  0  0  0
   -0.0751    3.8623    0.3533 C   0  0  0  0  0  0  0  0  0  0  0  0
   -1.2756    3.1386    0.3538 C   0  0  0  0  0  0  0  0  0  0  0  0
   -0.0412    5.2586    0.5353 C   0  0  0  0  0  0  0  0  0  0  0  0
    1.1624    5.8936    0.5222 C   0  0  0  0  0  0  0  0  0  0  0  0
    2.3011    5.2375    0.3437 N   0  0  0  0  0  0  0  0  0  0  0  0
    2.3495    3.9305    0.1669 C   0  0  0  0  0  0  0  0  0  0  0  0
    3.5681    3.2980   -0.0155 N   0  0  0  0  0  0  0  0  0  0  0  0
    4.7384    4.0545   -0.1286 C   0  0  0  0  0  0  0  0  0  0  0  0
    4.7030    5.3048   -0.7328 C   0  0  0  0  0  0  0  0  0  0  0  0
    5.8594    6.0525   -0.8377 C   0  0  0  0  0  0  0  0  0  0  0  0
    7.0549    5.5519   -0.3526 C   0  0  0  0  0  0  0  0  0  0  0  0
    7.0942    4.3042    0.2447 C   0  0  0  0  0  0  0  0  0  0  0  0
    5.9397    3.5548    0.3578 C   0  0  0  0  0  0  0  0  0  0  0  0
    8.5081    6.4913   -0.4931 Cl  0  0  0  0  0  0  0  0  0  0  0  0
   -1.3157    6.0360    0.7408 C   0  0  0  0  0  0  0  0  0  0  0  0
   -1.6931    6.0052    2.1995 C   0  0  0  0  0  0  0  0  0  0  0  0
   -1.2363    6.9820    3.0707 C   0  0  0  0  0  0  0  0  0  0  0  0
   -1.6013    6.9255    4.4062 C   0  0  0  0  0  0  0  0  0  0  0  0
   -2.3727    5.9595    4.8553 N   0  0  0  0  0  0  0  0  0  0  0  0
   -2.8312    5.0055    4.0548 C   0  0  0  0  0  0  0  0  0  0  0  0
   -2.5095    5.0030    2.6993 C   0  0  0  0  0  0  0  0  0  0  0  0
   -3.6971    3.9371    4.6062 C   0  0  0  0  0  0  0  0  0  0  0  0
   -4.1198    3.0610    3.8778 O   0  0  0  0  0  0  0  0  0  0  0  0
   -4.0161    3.9368    5.9157 N   0  0  0  0  0  0  0  0  0  0  0  0
   -2.1699    1.2313    0.1622 H   0  0  0  0  0  0  0  0  0  0  0  0
   -0.0417    0.0468   -0.1552 H   0  0  0  0  0  0  0  0  0  0  0  0
    2.0748    1.2575   -0.1644 H   0  0  0  0  0  0  0  0  0  0  0  0
   -2.2176    3.6470    0.4972 H   0  0  0  0  0  0  0  0  0  0  0  0
    1.1911    6.9642    0.6612 H   0  0  0  0  0  0  0  0  0  0  0  0
    3.6095    2.3301   -0.0647 H   0  0  0  0  0  0  0  0  0  0  0  0
    3.7712    5.6938   -1.1158 H   0  0  0  0  0  0  0  0  0  0  0  0
    5.8315    7.0268   -1.3027 H   0  0  0  0  0  0  0  0  0  0  0  0
    8.0284    3.9163    0.6230 H   0  0  0  0  0  0  0  0  0  0  0  0
    5.9708    2.5812    0.8243 H   0  0  0  0  0  0  0  0  0  0  0  0
   -1.1662    7.0687    0.4259 H   0  0  0  0  0  0  0  0  0  0  0  0
   -2.1141    5.5877    0.1494 H   0  0  0  0  0  0  0  0  0  0  0  0
   -0.6024    7.7794    2.7119 H   0  0  0  0  0  0  0  0  0  0  0  0
   -1.2472    7.6848    5.0877 H   0  0  0  0  0  0  0  0  0  0  0  0
   -2.8875    4.2288    2.0481 H   0  0  0  0  0  0  0  0  0  0  0  0
   -3.6787    4.6361    6.4972 H   0  0  0  0  0  0  0  0  0  0  0  0
   -4.5829    3.2374    6.2767 H   0  0  0  0  0  0  0  0  0  0  0  0
  1  6  2  0  0  0  0
  1  2  1  0  0  0  0
  1 29  1  0  0  0  0
  2  3  2  0  0  0  0
  2 30  1  0  0  0  0
  3  4  1  0  0  0  0
  3 31  1  0  0  0  0
  4 10  2  0  0  0  0
  4  5  1  0  0  0  0
  5  6  1  0  0  0  0
  5  7  2  0  0  0  0
  6 32  1  0  0  0  0
  7  8  1  0  0  0  0
  7 19  1  0  0  0  0
  8  9  2  0  0  0  0
  8 33  1  0  0  0  0
  9 10  1  0  0  0  0
 10 11  1  0  0  0  0
 11 12  1  0  0  0  0
 11 34  1  0  0  0  0
 12 17  2  0  0  0  0
 12 13  1  0  0  0  0
 13 14  2  0  0  0  0
 13 35  1  0  0  0  0
 14 15  1  0  0  0  0
 14 36  1  0  0  0  0
 15 16  2  0  0  0  0
 15 18  1  0  0  0  0
 16 17  1  0  0  0  0
 16 37  1  0  0  0  0
 17 38  1  0  0  0  0
 19 20  1  0  0  0  0
 19 39  1  0  0  0  0
 19 40  1  0  0  0  0
 20 25  2  0  0  0  0
 20 21  1  0  0  0  0
 21 22  2  0  0  0  0
 21 41  1  0  0  0  0
 22 23  1  0  0  0  0
 22 42  1  0  0  0  0
 23 24  2  0  0  0  0
 24 25  1  0  0  0  0
 24 26  1  0  0  0  0
 25 43  1  0  0  0  0
 26 27  2  0  0  0  0
 26 28  1  0  0  0  0
 28 44  1  0  0  0  0
 28 45  1  0  0  0  0
M  END
$$$$
ZINC03832387
  -OEChem-08230709403D

 37 40  0     0  0  0  0  0  0999 V2000
   -3.8118    8.2563   -1.6051 C   0  0  0  0  0  0  0  0  0  0  0  0
   -2.3724    8.1505   -1.1718 C   0  0  0  0  0  0  0  0  0  0  0  0
   -1.7677    6.9107   -1.0833 C   0  0  0  0  0  0  0  0  0  0  0  0
   -0.4469    6.8098   -0.6925 C   0  0  0  0  0  0  0  0  0  0  0  0
    0.2743    7.9550   -0.3760 C   0  0  0  0  0  0  0  0  0  0  0  0
   -0.3316    9.2008   -0.4643 C   0  0  0  0  0  0  0  0  0  0  0  0
   -1.6557    9.2979   -0.8625 C   0  0  0  0  0  0  0  0  0  0  0  0
   -2.2519   10.5160   -0.9496 O   0  0  0  0  0  0  0  0  0  0  0  0
    1.6087    7.8529    0.0250 N   0  0  0  0  0  0  0  0  0  0  0  0
    2.1778    6.6040    0.2309 C   0  0  0  0  0  0  0  0  0  0  0  0
    2.8543    5.9375   -0.8079 C   0  0  0  0  0  0  0  0  0  0  0  0
    3.4135    4.6800   -0.5595 C   0  0  0  0  0  0  0  0  0  0  0  0
    3.3140    4.1201    0.6248 N   0  0  0  0  0  0  0  0  0  0  0  0
    2.6835    4.7142    1.6335 C   0  0  0  0  0  0  0  0  0  0  0  0
    2.0943    5.9730    1.4759 C   0  0  0  0  0  0  0  0  0  0  0  0
    1.5278    6.3389    2.6464 O   0  0  0  0  0  0  0  0  0  0  0  0
    1.7007    5.3931    3.5946 C   0  0  0  0  0  0  0  0  0  0  0  0
    2.4239    4.3299    3.0341 C   0  0  0  0  0  0  0  0  0  0  0  0
    2.7412    3.2143    3.8030 C   0  0  0  0  0  0  0  0  0  0  0  0
    2.3412    3.1573    5.1213 C   0  0  0  0  0  0  0  0  0  0  0  0
    1.6219    4.2040    5.6765 C   0  0  0  0  0  0  0  0  0  0  0  0
    1.3066    5.3166    4.9253 C   0  0  0  0  0  0  0  0  0  0  0  0
    2.9682    6.5392   -2.1023 C   0  0  0  0  0  0  0  0  0  0  0  0
    3.0586    7.0164   -3.1293 N   0  0  0  0  0  0  0  0  0  0  0  0
   -3.8583    8.3582   -2.6894 H   0  0  0  0  0  0  0  0  0  0  0  0
   -4.3498    7.3584   -1.3012 H   0  0  0  0  0  0  0  0  0  0  0  0
   -4.2686    9.1290   -1.1383 H   0  0  0  0  0  0  0  0  0  0  0  0
   -2.3279    6.0194   -1.3246 H   0  0  0  0  0  0  0  0  0  0  0  0
    0.0246    5.8403   -0.6289 H   0  0  0  0  0  0  0  0  0  0  0  0
    0.2278   10.0928   -0.2236 H   0  0  0  0  0  0  0  0  0  0  0  0
   -2.1663   10.9347   -1.8170 H   0  0  0  0  0  0  0  0  0  0  0  0
    2.1374    8.6550    0.1595 H   0  0  0  0  0  0  0  0  0  0  0  0
    3.9342    4.1625   -1.3517 H   0  0  0  0  0  0  0  0  0  0  0  0
    3.2984    2.3971    3.3693 H   0  0  0  0  0  0  0  0  0  0  0  0
    2.5851    2.2931    5.7214 H   0  0  0  0  0  0  0  0  0  0  0  0
    1.3087    4.1494    6.7086 H   0  0  0  0  0  0  0  0  0  0  0  0
    0.7493    6.1277    5.3703 H   0  0  0  0  0  0  0  0  0  0  0  0
  1  2  1  0  0  0  0
  1 25  1  0  0  0  0
  1 26  1  0  0  0  0
  1 27  1  0  0  0  0
  2  7  2  0  0  0  0
  2  3  1  0  0  0  0
  3  4  2  0  0  0  0
  3 28  1  0  0  0  0
  4  5  1  0  0  0  0
  4 29  1  0  0  0  0
  5  6  2  0  0  0  0
  5  9  1  0  0  0  0
  6  7  1  0  0  0  0
  6 30  1  0  0  0  0
  7  8  1  0  0  0  0
  8 31  1  0  0  0  0
  9 10  1  0  0  0  0
  9 32  1  0  0  0  0
 10 15  2  0  0  0  0
 10 11  1  0  0  0  0
 11 12  2  0  0  0  0
 11 23  1  0  0  0  0
 12 13  1  0  0  0  0
 12 33  1  0  0  0  0
 13 14  2  0  0  0  0
 14 18  1  0  0  0  0
 14 15  1  0  0  0  0
 15 16  1  0  0  0  0
 16 17  1  0  0  0  0
 17 22  2  0  0  0  0
 17 18  1  0  0  0  0
 18 19  2  0  0  0  0
 19 20  1  0  0  0  0
 19 34  1  0  0  0  0
 20 21  2  0  0  0  0
 20 35  1  0  0  0  0
 21 22  1  0  0  0  0
 21 36  1  0  0  0  0
 22 37  1  0  0  0  0
 23 24  3  0  0  0  0
M  END
$$$$
ZINC03832388
  -OEChem-08230709403D

 33 35  0     0  0  0  0  0  0999 V2000
   -0.4886   -0.3487   -5.0611 C   0  0  0  0  0  0  0  0  0  0  0  0
   -0.6850    0.2919   -3.7113 C   0  0  0  0  0  0  0  0  0  0  0  0
   -0.8331    1.6626   -3.6128 C   0  0  0  0  0  0  0  0  0  0  0  0
   -1.0138    2.2534   -2.3776 C   0  0  0  0  0  0  0  0  0  0  0  0
   -1.0470    1.4701   -1.2300 C   0  0  0  0  0  0  0  0  0  0  0  0
   -0.8984    0.0934   -1.3272 C   0  0  0  0  0  0  0  0  0  0  0  0
   -0.7173   -0.4954   -2.5689 C   0  0  0  0  0  0  0  0  0  0  0  0
   -0.5711   -1.8429   -2.6675 O   0  0  0  0  0  0  0  0  0  0  0  0
   -1.2355    2.0670    0.0191 N   0  0  0  0  0  0  0  0  0  0  0  0
   -1.2548    3.4422    0.1309 C   0  0  0  0  0  0  0  0  0  0  0  0
   -2.4461    4.1772   -0.0711 C   0  0  0  0  0  0  0  0  0  0  0  0
   -3.6630    3.5537   -0.3805 C   0  0  0  0  0  0  0  0  0  0  0  0
   -4.7731    4.3327   -0.5555 C   0  0  0  0  0  0  0  0  0  0  0  0
   -4.7217    5.6517   -0.4331 N   0  0  0  0  0  0  0  0  0  0  0  0
   -3.6163    6.2958   -0.1394 C   0  0  0  0  0  0  0  0  0  0  0  0
   -2.4199    5.5875    0.0597 C   0  0  0  0  0  0  0  0  0  0  0  0
   -1.2764    6.2153    0.3600 N   0  0  0  0  0  0  0  0  0  0  0  0
   -0.1579    5.5618    0.5470 C   0  0  0  0  0  0  0  0  0  0  0  0
   -0.0927    4.1623    0.4431 C   0  0  0  0  0  0  0  0  0  0  0  0
    1.1475    3.4781    0.6543 C   0  0  0  0  0  0  0  0  0  0  0  0
    2.1313    2.9354    0.8218 N   0  0  0  0  0  0  0  0  0  0  0  0
   -5.9504    3.7442   -0.8601 F   0  0  0  0  0  0  0  0  0  0  0  0
   -1.4589   -0.6056   -5.4860 H   0  0  0  0  0  0  0  0  0  0  0  0
    0.0247    0.3488   -5.7230 H   0  0  0  0  0  0  0  0  0  0  0  0
    0.1105   -1.2525   -4.9507 H   0  0  0  0  0  0  0  0  0  0  0  0
   -0.8079    2.2728   -4.5035 H   0  0  0  0  0  0  0  0  0  0  0  0
   -1.1296    3.3246   -2.3035 H   0  0  0  0  0  0  0  0  0  0  0  0
   -0.9242   -0.5177   -0.4371 H   0  0  0  0  0  0  0  0  0  0  0  0
   -1.4035   -2.3216   -2.7815 H   0  0  0  0  0  0  0  0  0  0  0  0
   -1.3528    1.5146    0.8078 H   0  0  0  0  0  0  0  0  0  0  0  0
   -3.7214    2.4802   -0.4838 H   0  0  0  0  0  0  0  0  0  0  0  0
   -3.6266    7.3722   -0.0512 H   0  0  0  0  0  0  0  0  0  0  0  0
    0.7391    6.1134    0.7871 H   0  0  0  0  0  0  0  0  0  0  0  0
  1  2  1  0  0  0  0
  1 23  1  0  0  0  0
  1 24  1  0  0  0  0
  1 25  1  0  0  0  0
  2  7  2  0  0  0  0
  2  3  1  0  0  0  0
  3  4  2  0  0  0  0
  3 26  1  0  0  0  0
  4  5  1  0  0  0  0
  4 27  1  0  0  0  0
  5  6  2  0  0  0  0
  5  9  1  0  0  0  0
  6  7  1  0  0  0  0
  6 28  1  0  0  0  0
  7  8  1  0  0  0  0
  8 29  1  0  0  0  0
  9 10  1  0  0  0  0
  9 30  1  0  0  0  0
 10 19  2  0  0  0  0
 10 11  1  0  0  0  0
 11 16  2  0  0  0  0
 11 12  1  0  0  0  0
 12 13  2  0  0  0  0
 12 31  1  0  0  0  0
 13 14  1  0  0  0  0
 13 22  1  0  0  0  0
 14 15  2  0  0  0  0
 15 16  1  0  0  0  0
 15 32  1  0  0  0  0
 16 17  1  0  0  0  0
 17 18  2  0  0  0  0
 18 19  1  0  0  0  0
 18 33  1  0  0  0  0
 19 20  1  0  0  0  0
 20 21  3  0  0  0  0
M  END
$$$$
ZINC03832389
  -OEChem-08230709403D

 39 42  0     0  0  0  0  0  0999 V2000
    5.8046    2.0392   -3.3006 C   0  0  0  0  0  0  0  0  0  0  0  0
    5.2067    3.0492   -4.0051 C   0  0  0  0  0  0  0  0  0  0  0  0
    4.1937    3.7802   -3.3711 C   0  0  0  0  0  0  0  0  0  0  0  0
    3.8342    3.4536   -2.0381 C   0  0  0  0  0  0  0  0  0  0  0  0
    2.8074    4.2093   -1.4389 C   0  0  0  0  0  0  0  0  0  0  0  0
    2.2405    5.1755   -2.1226 N   0  0  0  0  0  0  0  0  0  0  0  0
    2.5641    5.4781   -3.3244 N   0  0  0  0  0  0  0  0  0  0  0  0
    3.5076    4.8429   -3.9997 C   0  0  0  0  0  0  0  0  0  0  0  0
    3.8164    5.2122   -5.2979 N   0  0  0  0  0  0  0  0  0  0  0  0
    3.2159    6.3401   -5.8654 C   0  0  0  0  0  0  0  0  0  0  0  0
    2.8986    6.3533   -7.2177 C   0  0  0  0  0  0  0  0  0  0  0  0
    2.3008    7.4668   -7.7744 C   0  0  0  0  0  0  0  0  0  0  0  0
    2.0278    8.5729   -6.9888 C   0  0  0  0  0  0  0  0  0  0  0  0
    2.3481    8.5646   -5.6425 C   0  0  0  0  0  0  0  0  0  0  0  0
    2.9408    7.4517   -5.0792 C   0  0  0  0  0  0  0  0  0  0  0  0
    1.2818    9.9731   -7.6933 Cl  0  0  0  0  0  0  0  0  0  0  0  0
    2.3694    3.9158   -0.0271 C   0  0  0  0  0  0  0  0  0  0  0  0
    1.2545    2.9020   -0.0476 C   0  0  0  0  0  0  0  0  0  0  0  0
    1.5289    1.5441    0.0078 C   0  0  0  0  0  0  0  0  0  0  0  0
    0.4806    0.6438   -0.0135 C   0  0  0  0  0  0  0  0  0  0  0  0
   -0.7673    1.0632   -0.0906 N   0  0  0  0  0  0  0  0  0  0  0  0
   -1.0656    2.3467   -0.1397 C   0  0  0  0  0  0  0  0  0  0  0  0
   -0.0700    3.3051   -0.1227 C   0  0  0  0  0  0  0  0  0  0  0  0
    4.4507    2.4557   -1.4073 N   0  0  0  0  0  0  0  0  0  0  0  0
    5.4008    1.7666   -1.9965 C   0  0  0  0  0  0  0  0  0  0  0  0
    6.5893    1.4536   -3.7566 H   0  0  0  0  0  0  0  0  0  0  0  0
    5.5063    3.2752   -5.0178 H   0  0  0  0  0  0  0  0  0  0  0  0
    4.4492    4.6884   -5.8137 H   0  0  0  0  0  0  0  0  0  0  0  0
    3.1152    5.4919   -7.8321 H   0  0  0  0  0  0  0  0  0  0  0  0
    2.0498    7.4759   -8.8248 H   0  0  0  0  0  0  0  0  0  0  0  0
    2.1340    9.4292   -5.0317 H   0  0  0  0  0  0  0  0  0  0  0  0
    3.1899    7.4456   -4.0283 H   0  0  0  0  0  0  0  0  0  0  0  0
    2.0168    4.8342    0.4422 H   0  0  0  0  0  0  0  0  0  0  0  0
    3.2115    3.5184    0.5394 H   0  0  0  0  0  0  0  0  0  0  0  0
    2.5490    1.1943    0.0665 H   0  0  0  0  0  0  0  0  0  0  0  0
    0.6859   -0.4157    0.0289 H   0  0  0  0  0  0  0  0  0  0  0  0
   -2.0998    2.6525   -0.1981 H   0  0  0  0  0  0  0  0  0  0  0  0
   -0.3205    4.3547   -0.1676 H   0  0  0  0  0  0  0  0  0  0  0  0
    5.8824    0.9664   -1.4541 H   0  0  0  0  0  0  0  0  0  0  0  0
  1 25  2  0  0  0  0
  1  2  1  0  0  0  0
  1 26  1  0  0  0  0
  2  3  2  0  0  0  0
  2 27  1  0  0  0  0
  3  8  1  0  0  0  0
  3  4  1  0  0  0  0
  4  5  1  0  0  0  0
  4 24  2  0  0  0  0
  5  6  2  0  0  0  0
  5 17  1  0  0  0  0
  6  7  1  0  0  0  0
  7  8  2  0  0  0  0
  8  9  1  0  0  0  0
  9 10  1  0  0  0  0
  9 28  1  0  0  0  0
 10 15  2  0  0  0  0
 10 11  1  0  0  0  0
 11 12  2  0  0  0  0
 11 29  1  0  0  0  0
 12 13  1  0  0  0  0
 12 30  1  0  0  0  0
 13 14  2  0  0  0  0
 13 16  1  0  0  0  0
 14 15  1  0  0  0  0
 14 31  1  0  0  0  0
 15 32  1  0  0  0  0
 17 18  1  0  0  0  0
 17 33  1  0  0  0  0
 17 34  1  0  0  0  0
 18 23  2  0  0  0  0
 18 19  1  0  0  0  0
 19 20  2  0  0  0  0
 19 35  1  0  0  0  0
 20 21  1  0  0  0  0
 20 36  1  0  0  0  0
 21 22  2  0  0  0  0
 22 23  1  0  0  0  0
 22 37  1  0  0  0  0
 23 38  1  0  0  0  0
 24 25  1  0  0  0  0
 25 39  1  0  0  0  0
M  END
$$$$
ZINC03832390
  -OEChem-08230709403D

 53 56  0     0  0  0  0  0  0999 V2000
   -9.2281    5.6835    1.8003 C   0  0  0  0  0  0  0  0  0  0  0  0
   -8.4813    6.1349    0.5435 C   0  0  0  0  0  0  0  0  0  0  0  0
   -7.1986    5.3546    0.4139 C   0  0  0  0  0  0  0  0  0  0  0  0
   -6.0178    5.8817    0.9044 C   0  0  0  0  0  0  0  0  0  0  0  0
   -4.8414    5.1674    0.7916 C   0  0  0  0  0  0  0  0  0  0  0  0
   -4.8424    3.9224    0.1748 C   0  0  0  0  0  0  0  0  0  0  0  0
   -6.0295    3.3953   -0.3169 C   0  0  0  0  0  0  0  0  0  0  0  0
   -7.2046    4.1127   -0.1959 C   0  0  0  0  0  0  0  0  0  0  0  0
   -8.8219    3.3965   -0.8648 Br  0  0  0  0  0  0  0  0  0  0  0  0
   -3.6524    3.1995    0.0545 N   0  0  0  0  0  0  0  0  0  0  0  0
   -2.4515    3.8669   -0.1211 C   0  0  0  0  0  0  0  0  0  0  0  0
   -1.2346    3.1487   -0.1254 C   0  0  0  0  0  0  0  0  0  0  0  0
   -1.1915    1.7581    0.0375 C   0  0  0  0  0  0  0  0  0  0  0  0
    0.0117    1.1176    0.0299 C   0  0  0  0  0  0  0  0  0  0  0  0
    1.1995    1.8228   -0.1485 C   0  0  0  0  0  0  0  0  0  0  0  0
    1.1938    3.1754   -0.3157 C   0  0  0  0  0  0  0  0  0  0  0  0
   -0.0258    3.8663   -0.3074 C   0  0  0  0  0  0  0  0  0  0  0  0
   -0.0979    5.2632   -0.4755 C   0  0  0  0  0  0  0  0  0  0  0  0
   -1.3180    5.8649   -0.4565 C   0  0  0  0  0  0  0  0  0  0  0  0
   -2.4387    5.1761   -0.2848 N   0  0  0  0  0  0  0  0  0  0  0  0
    1.1551    6.0771   -0.6724 C   0  0  0  0  0  0  0  0  0  0  0  0
    1.5396    6.0712   -2.1532 C   0  0  0  0  0  0  0  0  0  0  0  0
    2.7926    6.8851   -2.3501 C   0  0  0  0  0  0  0  0  0  0  0  0
    4.0400    6.2853   -2.2656 C   0  0  0  0  0  0  0  0  0  0  0  0
    5.1650    7.0731   -2.4537 C   0  0  0  0  0  0  0  0  0  0  0  0
    5.0071    8.4208   -2.7173 C   0  0  0  0  0  0  0  0  0  0  0  0
    3.8049    8.9574   -2.7905 N   0  0  0  0  0  0  0  0  0  0  0  0
    2.7127    8.2374   -2.6228 C   0  0  0  0  0  0  0  0  0  0  0  0
    6.2231    9.2869   -2.9230 C   0  0  0  0  0  0  0  0  0  0  0  0
   -9.4556    4.6201    1.7255 H   0  0  0  0  0  0  0  0  0  0  0  0
   -8.6048    5.8609    2.6767 H   0  0  0  0  0  0  0  0  0  0  0  0
  -10.1559    6.2479    1.8941 H   0  0  0  0  0  0  0  0  0  0  0  0
   -8.2538    7.1983    0.6183 H   0  0  0  0  0  0  0  0  0  0  0  0
   -9.1047    5.9574   -0.3329 H   0  0  0  0  0  0  0  0  0  0  0  0
   -6.0165    6.8514    1.3798 H   0  0  0  0  0  0  0  0  0  0  0  0
   -3.9206    5.5781    1.1786 H   0  0  0  0  0  0  0  0  0  0  0  0
   -6.0344    2.4259   -0.7930 H   0  0  0  0  0  0  0  0  0  0  0  0
   -3.6675    2.2304    0.0941 H   0  0  0  0  0  0  0  0  0  0  0  0
   -2.1049    1.1978    0.1721 H   0  0  0  0  0  0  0  0  0  0  0  0
    0.0442    0.0460    0.1598 H   0  0  0  0  0  0  0  0  0  0  0  0
    2.1388    1.2899   -0.1548 H   0  0  0  0  0  0  0  0  0  0  0  0
    2.1216    3.7107   -0.4531 H   0  0  0  0  0  0  0  0  0  0  0  0
   -1.3759    6.9356   -0.5851 H   0  0  0  0  0  0  0  0  0  0  0  0
    0.9773    7.1022   -0.3472 H   0  0  0  0  0  0  0  0  0  0  0  0
    1.9651    5.6450   -0.0849 H   0  0  0  0  0  0  0  0  0  0  0  0
    1.7174    5.0461   -2.4784 H   0  0  0  0  0  0  0  0  0  0  0  0
    0.7296    6.5034   -2.7407 H   0  0  0  0  0  0  0  0  0  0  0  0
    4.1328    5.2294   -2.0585 H   0  0  0  0  0  0  0  0  0  0  0  0
    6.1524    6.6395   -2.3946 H   0  0  0  0  0  0  0  0  0  0  0  0
    1.7449    8.7111   -2.6950 H   0  0  0  0  0  0  0  0  0  0  0  0
    6.4886    9.2954   -3.9801 H   0  0  0  0  0  0  0  0  0  0  0  0
    6.0050   10.3033   -2.5950 H   0  0  0  0  0  0  0  0  0  0  0  0
    7.0553    8.8886   -2.3426 H   0  0  0  0  0  0  0  0  0  0  0  0
  1  2  1  0  0  0  0
  1 30  1  0  0  0  0
  1 31  1  0  0  0  0
  1 32  1  0  0  0  0
  2  3  1  0  0  0  0
  2 33  1  0  0  0  0
  2 34  1  0  0  0  0
  3  8  2  0  0  0  0
  3  4  1  0  0  0  0
  4  5  2  0  0  0  0
  4 35  1  0  0  0  0
  5  6  1  0  0  0  0
  5 36  1  0  0  0  0
  6  7  2  0  0  0  0
  6 10  1  0  0  0  0
  7  8  1  0  0  0  0
  7 37  1  0  0  0  0
  8  9  1  0  0  0  0
 10 11  1  0  0  0  0
 10 38  1  0  0  0  0
 11 20  2  0  0  0  0
 11 12  1  0  0  0  0
 12 17  2  0  0  0  0
 12 13  1  0  0  0  0
 13 14  2  0  0  0  0
 13 39  1  0  0  0  0
 14 15  1  0  0  0  0
 14 40  1  0  0  0  0
 15 16  2  0  0  0  0
 15 41  1  0  0  0  0
 16 17  1  0  0  0  0
 16 42  1  0  0  0  0
 17 18  1  0  0  0  0
 18 19  2  0  0  0  0
 18 21  1  0  0  0  0
 19 20  1  0  0  0  0
 19 43  1  0  0  0  0
 21 22  1  0  0  0  0
 21 44  1  0  0  0  0
 21 45  1  0  0  0  0
 22 23  1  0  0  0  0
 22 46  1  0  0  0  0
 22 47  1  0  0  0  0
 23 28  2  0  0  0  0
 23 24  1  0  0  0  0
 24 25  2  0  0  0  0
 24 48  1  0  0  0  0
 25 26  1  0  0  0  0
 25 49  1  0  0  0  0
 26 27  2  0  0  0  0
 26 29  1  0  0  0  0
 27 28  1  0  0  0  0
 28 50  1  0  0  0  0
 29 51  1  0  0  0  0
 29 52  1  0  0  0  0
 29 53  1  0  0  0  0
M  END
$$$$
ZINC03832391
  -OEChem-08230709403D

 48 51  0     0  0  0  0  0  0999 V2000
    2.4903   10.9752   -0.0325 C   0  0  0  0  0  0  0  0  0  0  0  0
    1.9920    9.9581    0.7612 C   0  0  0  0  0  0  0  0  0  0  0  0
    0.6550    9.5929    0.5967 C   0  0  0  0  0  0  0  0  0  0  0  0
   -0.0994   10.2250   -0.2940 N   0  0  0  0  0  0  0  0  0  0  0  0
    0.3589   11.1728   -1.0282 N   0  0  0  0  0  0  0  0  0  0  0  0
    1.6189   11.5837   -0.9449 C   0  0  0  0  0  0  0  0  0  0  0  0
    2.1004   12.6790   -1.8123 C   0  0  0  0  0  0  0  0  0  0  0  0
    1.3968   13.3368   -2.7167 N   0  0  0  0  0  0  0  0  0  0  0  0
    2.2425   14.2329   -3.2483 C   0  0  0  0  0  0  0  0  0  0  0  0
    3.3952   14.0803   -2.6660 N   0  0  0  0  0  0  0  0  0  0  0  0
    3.3389   13.1952   -1.8387 O   0  0  0  0  0  0  0  0  0  0  0  0
    0.1136    8.5743    1.3672 N   0  0  0  0  0  0  0  0  0  0  0  0
   -1.3012    8.3599    1.0371 C   0  0  0  0  0  0  0  0  0  0  0  0
   -1.9018    7.3350    2.0018 C   0  0  0  0  0  0  0  0  0  0  0  0
   -1.1269    6.0193    1.8884 C   0  0  0  0  0  0  0  0  0  0  0  0
    0.3521    6.2780    2.1887 C   0  0  0  0  0  0  0  0  0  0  0  0
    0.8870    7.3348    1.2194 C   0  0  0  0  0  0  0  0  0  0  0  0
   -1.6601    5.0524    2.8513 N   0  0  0  0  0  0  0  0  0  0  0  0
   -1.5147    3.6828    2.6192 C   0  0  0  0  0  0  0  0  0  0  0  0
   -2.0196    2.7647    3.5312 C   0  0  0  0  0  0  0  0  0  0  0  0
   -1.8741    1.4112    3.2986 C   0  0  0  0  0  0  0  0  0  0  0  0
   -1.2266    0.9695    2.1593 C   0  0  0  0  0  0  0  0  0  0  0  0
   -0.7223    1.8808    1.2496 C   0  0  0  0  0  0  0  0  0  0  0  0
   -0.8594    3.2358    1.4788 C   0  0  0  0  0  0  0  0  0  0  0  0
   -0.0169    1.3948    0.0097 C   0  0  0  0  0  0  0  0  0  0  0  0
    0.0021   -0.0041    0.0020 F   0  0  0  0  0  0  0  0  0  0  0  0
    1.2956    1.8790   -0.0002 F   0  0  0  0  0  0  0  0  0  0  0  0
   -0.6935    1.8582   -1.1237 F   0  0  0  0  0  0  0  0  0  0  0  0
   -2.4220    0.4145    4.2871 C   0  0  0  0  0  0  0  0  0  0  0  0
   -2.1551   -0.8832    3.8376 F   0  0  0  0  0  0  0  0  0  0  0  0
   -1.8151    0.6107    5.5323 F   0  0  0  0  0  0  0  0  0  0  0  0
   -3.8045    0.5906    4.4093 F   0  0  0  0  0  0  0  0  0  0  0  0
    3.5189   11.2936    0.0517 H   0  0  0  0  0  0  0  0  0  0  0  0
    2.6200    9.4583    1.4839 H   0  0  0  0  0  0  0  0  0  0  0  0
    2.0091   14.9486   -4.0227 H   0  0  0  0  0  0  0  0  0  0  0  0
   -1.3836    7.9889    0.0155 H   0  0  0  0  0  0  0  0  0  0  0  0
   -1.8415    9.3024    1.1259 H   0  0  0  0  0  0  0  0  0  0  0  0
   -2.9477    7.1645    1.7467 H   0  0  0  0  0  0  0  0  0  0  0  0
   -1.8322    7.7115    3.0224 H   0  0  0  0  0  0  0  0  0  0  0  0
   -1.2295    5.6220    0.8785 H   0  0  0  0  0  0  0  0  0  0  0  0
    0.4581    6.6374    3.2122 H   0  0  0  0  0  0  0  0  0  0  0  0
    0.9154    5.3529    2.0670 H   0  0  0  0  0  0  0  0  0  0  0  0
    0.7943    6.9686    0.1970 H   0  0  0  0  0  0  0  0  0  0  0  0
    1.9358    7.5326    1.4407 H   0  0  0  0  0  0  0  0  0  0  0  0
   -2.1141    5.3635    3.6500 H   0  0  0  0  0  0  0  0  0  0  0  0
   -2.5252    3.1090    4.4213 H   0  0  0  0  0  0  0  0  0  0  0  0
   -1.1141   -0.0895    1.9798 H   0  0  0  0  0  0  0  0  0  0  0  0
   -0.4614    3.9469    0.7701 H   0  0  0  0  0  0  0  0  0  0  0  0
  1  6  2  0  0  0  0
  1  2  1  0  0  0  0
  1 33  1  0  0  0  0
  2  3  2  0  0  0  0
  2 34  1  0  0  0  0
  3  4  1  0  0  0  0
  3 12  1  0  0  0  0
  4  5  2  0  0  0  0
  5  6  1  0  0  0  0
  6  7  1  0  0  0  0
  7 11  1  0  0  0  0
  7  8  2  0  0  0  0
  8  9  1  0  0  0  0
  9 10  2  0  0  0  0
  9 35  1  0  0  0  0
 10 11  1  0  0  0  0
 12 17  1  0  0  0  0
 12 13  1  0  0  0  0
 13 14  1  0  0  0  0
 13 36  1  0  0  0  0
 13 37  1  0  0  0  0
 14 15  1  0  0  0  0
 14 38  1  0  0  0  0
 14 39  1  0  0  0  0
 15 16  1  0  0  0  0
 15 18  1  0  0  0  0
 15 40  1  0  0  0  0
 16 17  1  0  0  0  0
 16 41  1  0  0  0  0
 16 42  1  0  0  0  0
 17 43  1  0  0  0  0
 17 44  1  0  0  0  0
 18 19  1  0  0  0  0
 18 45  1  0  0  0  0
 19 24  2  0  0  0  0
 19 20  1  0  0  0  0
 20 21  2  0  0  0  0
 20 46  1  0  0  0  0
 21 22  1  0  0  0  0
 21 29  1  0  0  0  0
 22 23  2  0  0  0  0
 22 47  1  0  0  0  0
 23 24  1  0  0  0  0
 23 25  1  0  0  0  0
 24 48  1  0  0  0  0
 25 26  1  0  0  0  0
 25 27  1  0  0  0  0
 25 28  1  0  0  0  0
 29 30  1  0  0  0  0
 29 31  1  0  0  0  0
 29 32  1  0  0  0  0
M  END
$$$$
ZINC03832392
  -OEChem-08230709403D

 70 73  0     0  0  0  0  0  0999 V2000
   -2.9722    4.0723    0.0271 C   0  0  0  0  0  0  0  0  0  0  0  0
   -2.2857    4.2792    1.3787 C   0  0  0  0  0  0  0  0  0  0  0  0
   -3.1867    3.7474    2.4951 C   0  0  0  0  0  0  0  0  0  0  0  0
   -0.9743    3.5367    1.3950 C   0  0  0  0  0  0  0  0  0  0  0  0
   -0.8257    2.3845    0.6438 C   0  0  0  0  0  0  0  0  0  0  0  0
    0.3706    1.6971    0.6591 C   0  0  0  0  0  0  0  0  0  0  0  0
    1.4350    2.1726    1.4248 C   0  0  0  0  0  0  0  0  0  0  0  0
    1.2809    3.3380    2.1755 C   0  0  0  0  0  0  0  0  0  0  0  0
    0.0778    4.0134    2.1565 C   0  0  0  0  0  0  0  0  0  0  0  0
    2.7240    1.4432    1.4404 C   0  0  0  0  0  0  0  0  0  0  0  0
    3.9464    2.1452    1.5259 C   0  0  0  0  0  0  0  0  0  0  0  0
    5.1337    1.4038    1.5414 C   0  0  0  0  0  0  0  0  0  0  0  0
    5.0691    0.0873    1.4663 N   0  0  0  0  0  0  0  0  0  0  0  0
    3.9024   -0.5390    1.3819 C   0  0  0  0  0  0  0  0  0  0  0  0
    2.7516    0.1166    1.3687 N   0  0  0  0  0  0  0  0  0  0  0  0
    3.8875   -1.9188    1.3049 N   0  0  0  0  0  0  0  0  0  0  0  0
    5.0890   -2.6261    1.2006 C   0  0  0  0  0  0  0  0  0  0  0  0
    6.1580   -2.0826    0.4998 C   0  0  0  0  0  0  0  0  0  0  0  0
    7.3455   -2.7812    0.4040 C   0  0  0  0  0  0  0  0  0  0  0  0
    7.4668   -4.0259    0.9942 C   0  0  0  0  0  0  0  0  0  0  0  0
    6.4025   -4.5724    1.6878 C   0  0  0  0  0  0  0  0  0  0  0  0
    5.2143   -3.8763    1.7927 C   0  0  0  0  0  0  0  0  0  0  0  0
    8.7618   -4.7883    0.8818 C   0  0  0  0  0  0  0  0  0  0  0  0
    8.7287   -5.6681   -0.3695 C   0  0  0  0  0  0  0  0  0  0  0  0
   11.1184   -5.5012   -0.7252 C   0  0  0  0  0  0  0  0  0  0  0  0
   12.4215   -6.3034   -0.7536 C   0  0  0  0  0  0  0  0  0  0  0  0
   11.2116   -8.2404   -1.5554 C   0  0  0  0  0  0  0  0  0  0  0  0
    9.9085   -7.4382   -1.5271 C   0  0  0  0  0  0  0  0  0  0  0  0
   13.6012   -8.0734   -1.9112 C   0  0  0  0  0  0  0  0  0  0  0  0
    3.9705    3.5751    1.5999 C   0  0  0  0  0  0  0  0  0  0  0  0
    3.9896    4.7094    1.6586 N   0  0  0  0  0  0  0  0  0  0  0  0
   -3.1547    3.0090   -0.1287 H   0  0  0  0  0  0  0  0  0  0  0  0
   -3.9206    4.6092    0.0154 H   0  0  0  0  0  0  0  0  0  0  0  0
   -2.3303    4.4511   -0.7682 H   0  0  0  0  0  0  0  0  0  0  0  0
   -2.6976    3.8947    3.4580 H   0  0  0  0  0  0  0  0  0  0  0  0
   -4.1352    4.2843    2.4834 H   0  0  0  0  0  0  0  0  0  0  0  0
   -3.3692    2.6841    2.3393 H   0  0  0  0  0  0  0  0  0  0  0  0
   -1.6492    2.0198    0.0478 H   0  0  0  0  0  0  0  0  0  0  0  0
    0.4840    0.7953    0.0759 H   0  0  0  0  0  0  0  0  0  0  0  0
    2.1016    3.7113    2.7700 H   0  0  0  0  0  0  0  0  0  0  0  0
   -0.0427    4.9161    2.7370 H   0  0  0  0  0  0  0  0  0  0  0  0
    6.0894    1.9020    1.6097 H   0  0  0  0  0  0  0  0  0  0  0  0
    3.0435   -2.3965    1.3233 H   0  0  0  0  0  0  0  0  0  0  0  0
    6.0624   -1.1127    0.0345 H   0  0  0  0  0  0  0  0  0  0  0  0
    8.1787   -2.3571   -0.1367 H   0  0  0  0  0  0  0  0  0  0  0  0
    6.5007   -5.5443    2.1482 H   0  0  0  0  0  0  0  0  0  0  0  0
    4.3836   -4.3035    2.3348 H   0  0  0  0  0  0  0  0  0  0  0  0
    9.5920   -4.0857    0.8100 H   0  0  0  0  0  0  0  0  0  0  0  0
    8.8919   -5.4156    1.7637 H   0  0  0  0  0  0  0  0  0  0  0  0
    7.8985   -6.3708   -0.2977 H   0  0  0  0  0  0  0  0  0  0  0  0
    8.5987   -5.0409   -1.2514 H   0  0  0  0  0  0  0  0  0  0  0  0
   10.9788   -5.0003   -1.6832 H   0  0  0  0  0  0  0  0  0  0  0  0
   11.1662   -4.7579    0.0706 H   0  0  0  0  0  0  0  0  0  0  0  0
   12.5748   -6.7823    0.2135 H   0  0  0  0  0  0  0  0  0  0  0  0
   13.2558   -5.6345   -0.9648 H   0  0  0  0  0  0  0  0  0  0  0  0
   11.3511   -8.7413   -0.5975 H   0  0  0  0  0  0  0  0  0  0  0  0
   11.1637   -8.9839   -2.3510 H   0  0  0  0  0  0  0  0  0  0  0  0
    9.0742   -8.1070   -1.3159 H   0  0  0  0  0  0  0  0  0  0  0  0
    9.7548   -6.9593   -2.4941 H   0  0  0  0  0  0  0  0  0  0  0  0
   13.5360   -8.7806   -2.7381 H   0  0  0  0  0  0  0  0  0  0  0  0
   14.4189   -7.3760   -2.0932 H   0  0  0  0  0  0  0  0  0  0  0  0
   13.7856   -8.6152   -0.9835 H   0  0  0  0  0  0  0  0  0  0  0  0
   -1.6456    5.8813    2.5021 H   0  0  0  0  0  0  0  0  0  0  0  0
   -1.4466    6.0872    0.8638 H   0  0  0  0  0  0  0  0  0  0  0  0
    9.9963   -6.4244   -0.4549 N   0  3  0  0  0  0  0  0  0  0  0  0
   10.1627   -6.8988    0.4403 H   0  0  0  0  0  0  0  0  0  0  0  0
   12.3338   -7.3170   -1.8256 N   0  3  0  0  0  0  0  0  0  0  0  0
   12.1674   -6.8424   -2.7208 H   0  0  0  0  0  0  0  0  0  0  0  0
   -2.0634    5.7209    1.5870 N   0  3  0  0  0  0  0  0  0  0  0  0
   -2.9641    6.2116    1.5393 H   0  0  0  0  0  0  0  0  0  0  0  0
  1  2  1  0  0  0  0
  1 32  1  0  0  0  0
  1 33  1  0  0  0  0
  1 34  1  0  0  0  0
  2  3  1  0  0  0  0
  2  4  1  0  0  0  0
  2 69  1  0  0  0  0
  3 35  1  0  0  0  0
  3 36  1  0  0  0  0
  3 37  1  0  0  0  0
  4  9  2  0  0  0  0
  4  5  1  0  0  0  0
  5  6  2  0  0  0  0
  5 38  1  0  0  0  0
  6  7  1  0  0  0  0
  6 39  1  0  0  0  0
  7  8  2  0  0  0  0
  7 10  1  0  0  0  0
  8  9  1  0  0  0  0
  8 40  1  0  0  0  0
  9 41  1  0  0  0  0
 10 15  2  0  0  0  0
 10 11  1  0  0  0  0
 11 12  2  0  0  0  0
 11 30  1  0  0  0  0
 12 13  1  0  0  0  0
 12 42  1  0  0  0  0
 13 14  2  0  0  0  0
 14 15  1  0  0  0  0
 14 16  1  0  0  0  0
 16 17  1  0  0  0  0
 16 43  1  0  0  0  0
 17 22  2  0  0  0  0
 17 18  1  0  0  0  0
 18 19  2  0  0  0  0
 18 44  1  0  0  0  0
 19 20  1  0  0  0  0
 19 45  1  0  0  0  0
 20 21  2  0  0  0  0
 20 23  1  0  0  0  0
 21 22  1  0  0  0  0
 21 46  1  0  0  0  0
 22 47  1  0  0  0  0
 23 24  1  0  0  0  0
 23 48  1  0  0  0  0
 23 49  1  0  0  0  0
 24 50  1  0  0  0  0
 24 51  1  0  0  0  0
 24 65  1  0  0  0  0
 25 26  1  0  0  0  0
 25 52  1  0  0  0  0
 25 53  1  0  0  0  0
 25 65  1  0  0  0  0
 26 54  1  0  0  0  0
 26 55  1  0  0  0  0
 26 67  1  0  0  0  0
 27 28  1  0  0  0  0
 27 56  1  0  0  0  0
 27 57  1  0  0  0  0
 27 67  1  0  0  0  0
 28 58  1  0  0  0  0
 28 59  1  0  0  0  0
 28 65  1  0  0  0  0
 29 60  1  0  0  0  0
 29 61  1  0  0  0  0
 29 62  1  0  0  0  0
 29 67  1  0  0  0  0
 30 31  3  0  0  0  0
 63 69  1  0  0  0  0
 64 69  1  0  0  0  0
 65 66  1  0  0  0  0
 67 68  1  0  0  0  0
 69 70  1  0  0  0  0
M  CHG  3  65   1  67   1  69   1
M  END
$$$$
ZINC03832393
  -OEChem-08230709403D

 43 45  0     0  0  0  0  0  0999 V2000
   -4.7146    5.4431    0.4386 C   0  0  0  0  0  0  0  0  0  0  0  0
   -3.4997    6.1955    0.4345 O   0  0  0  0  0  0  0  0  0  0  0  0
   -2.3395    5.4941    0.3271 C   0  0  0  0  0  0  0  0  0  0  0  0
   -2.3717    4.1120    0.2280 C   0  0  0  0  0  0  0  0  0  0  0  0
   -1.1874    3.3958    0.1188 C   0  0  0  0  0  0  0  0  0  0  0  0
    0.0301    4.0628    0.1146 C   0  0  0  0  0  0  0  0  0  0  0  0
    0.0637    5.4453    0.2079 C   0  0  0  0  0  0  0  0  0  0  0  0
   -1.1214    6.1630    0.3172 C   0  0  0  0  0  0  0  0  0  0  0  0
   -1.0890    7.5209    0.4141 O   0  0  0  0  0  0  0  0  0  0  0  0
   -1.0127    8.0758    1.7288 C   0  0  0  0  0  0  0  0  0  0  0  0
    1.2562    6.0989    0.1981 O   0  0  0  0  0  0  0  0  0  0  0  0
    2.4341    5.2979    0.0830 C   0  0  0  0  0  0  0  0  0  0  0  0
   -1.2208    1.9995    0.0187 N   0  0  0  0  0  0  0  0  0  0  0  0
   -0.2685    1.3381   -0.7317 C   0  0  0  0  0  0  0  0  0  0  0  0
    0.6108    2.0303   -1.4525 N   0  0  0  0  0  0  0  0  0  0  0  0
    1.5188    1.3988   -2.1750 C   0  0  0  0  0  0  0  0  0  0  0  0
    1.5585    0.0777   -2.1856 N   0  0  0  0  0  0  0  0  0  0  0  0
    0.6826   -0.6221   -1.4674 C   0  0  0  0  0  0  0  0  0  0  0  0
   -0.2324    0.0099   -0.7393 N   0  0  0  0  0  0  0  0  0  0  0  0
    0.7280   -2.1040   -1.4794 C   0  0  0  0  0  0  0  0  0  0  0  0
   -0.1844   -2.8381   -0.7232 C   0  0  0  0  0  0  0  0  0  0  0  0
   -0.1407   -4.2173   -0.7423 C   0  0  0  0  0  0  0  0  0  0  0  0
    0.8133   -4.8713   -1.5011 C   0  0  0  0  0  0  0  0  0  0  0  0
    1.7246   -4.1480   -2.2494 C   0  0  0  0  0  0  0  0  0  0  0  0
    1.6869   -2.7685   -2.2425 C   0  0  0  0  0  0  0  0  0  0  0  0
   -4.7111    4.7520    1.2815 H   0  0  0  0  0  0  0  0  0  0  0  0
   -5.5623    6.1223    0.5292 H   0  0  0  0  0  0  0  0  0  0  0  0
   -4.7971    4.8812   -0.4917 H   0  0  0  0  0  0  0  0  0  0  0  0
   -3.3182    3.5920    0.2360 H   0  0  0  0  0  0  0  0  0  0  0  0
    0.9512    3.5045    0.0344 H   0  0  0  0  0  0  0  0  0  0  0  0
   -1.8818    7.7616    2.3068 H   0  0  0  0  0  0  0  0  0  0  0  0
   -0.1044    7.7255    2.2189 H   0  0  0  0  0  0  0  0  0  0  0  0
   -0.9938    9.1637    1.6634 H   0  0  0  0  0  0  0  0  0  0  0  0
    2.4863    4.6058    0.9235 H   0  0  0  0  0  0  0  0  0  0  0  0
    2.4009    4.7350   -0.8497 H   0  0  0  0  0  0  0  0  0  0  0  0
    3.3134    5.9421    0.0876 H   0  0  0  0  0  0  0  0  0  0  0  0
   -1.9127    1.4968    0.4763 H   0  0  0  0  0  0  0  0  0  0  0  0
    2.2305    1.9636   -2.7589 H   0  0  0  0  0  0  0  0  0  0  0  0
   -0.9267   -2.3285   -0.1266 H   0  0  0  0  0  0  0  0  0  0  0  0
   -0.8497   -4.7872   -0.1600 H   0  0  0  0  0  0  0  0  0  0  0  0
    0.8466   -5.9507   -1.5095 H   0  0  0  0  0  0  0  0  0  0  0  0
    2.4668   -4.6638   -2.8405 H   0  0  0  0  0  0  0  0  0  0  0  0
    2.3986   -2.2048   -2.8274 H   0  0  0  0  0  0  0  0  0  0  0  0
  1  2  1  0  0  0  0
  1 26  1  0  0  0  0
  1 27  1  0  0  0  0
  1 28  1  0  0  0  0
  2  3  1  0  0  0  0
  3  8  2  0  0  0  0
  3  4  1  0  0  0  0
  4  5  2  0  0  0  0
  4 29  1  0  0  0  0
  5  6  1  0  0  0  0
  5 13  1  0  0  0  0
  6  7  2  0  0  0  0
  6 30  1  0  0  0  0
  7  8  1  0  0  0  0
  7 11  1  0  0  0  0
  8  9  1  0  0  0  0
  9 10  1  0  0  0  0
 10 31  1  0  0  0  0
 10 32  1  0  0  0  0
 10 33  1  0  0  0  0
 11 12  1  0  0  0  0
 12 34  1  0  0  0  0
 12 35  1  0  0  0  0
 12 36  1  0  0  0  0
 13 14  1  0  0  0  0
 13 37  1  0  0  0  0
 14 19  2  0  0  0  0
 14 15  1  0  0  0  0
 15 16  2  0  0  0  0
 16 17  1  0  0  0  0
 16 38  1  0  0  0  0
 17 18  2  0  0  0  0
 18 19  1  0  0  0  0
 18 20  1  0  0  0  0
 20 25  2  0  0  0  0
 20 21  1  0  0  0  0
 21 22  2  0  0  0  0
 21 39  1  0  0  0  0
 22 23  1  0  0  0  0
 22 40  1  0  0  0  0
 23 24  2  0  0  0  0
 23 41  1  0  0  0  0
 24 25  1  0  0  0  0
 24 42  1  0  0  0  0
 25 43  1  0  0  0  0
M  END
$$$$
ZINC03832394
  -OEChem-08230709403D

 41 43  0     0  0  0  0  0  0999 V2000
   -0.9649    1.7613   -0.7656 C   0  0  0  0  0  0  0  0  0  0  0  0
   -0.0193    1.0784   -0.0223 C   0  0  0  0  0  0  0  0  0  0  0  0
    0.9064    1.7752    0.7322 C   0  0  0  0  0  0  0  0  0  0  0  0
    0.8961    3.1564    0.7376 C   0  0  0  0  0  0  0  0  0  0  0  0
   -0.0520    3.8451   -0.0075 C   0  0  0  0  0  0  0  0  0  0  0  0
   -0.9840    3.1420   -0.7603 C   0  0  0  0  0  0  0  0  0  0  0  0
   -0.0689    5.2435    0.0004 N   0  0  0  0  0  0  0  0  0  0  0  0
    1.0849    5.9307    0.1142 C   0  0  0  0  0  0  0  0  0  0  0  0
    2.1474    5.3391    0.1156 O   0  0  0  0  0  0  0  0  0  0  0  0
    1.0590    7.3995    0.2370 C   0  0  0  0  0  0  0  0  0  0  0  0
   -0.1500    8.0904    0.3581 C   0  0  0  0  0  0  0  0  0  0  0  0
   -0.1272    9.4079    0.4657 N   0  0  0  0  0  0  0  0  0  0  0  0
    1.0117   10.0746    0.4605 C   0  0  0  0  0  0  0  0  0  0  0  0
    2.1774    9.4725    0.3489 N   0  0  0  0  0  0  0  0  0  0  0  0
    2.2537    8.1492    0.2415 C   0  0  0  0  0  0  0  0  0  0  0  0
    3.4769    7.5226    0.1309 N   0  0  0  0  0  0  0  0  0  0  0  0
    4.7012    8.3199    0.0224 C   0  0  0  0  0  0  0  0  0  0  0  0
    5.8909    7.4012   -0.0858 C   0  0  0  0  0  0  0  0  0  0  0  0
    6.5611    6.9713    1.0493 C   0  0  0  0  0  0  0  0  0  0  0  0
    7.6456    6.1257    0.9113 C   0  0  0  0  0  0  0  0  0  0  0  0
    8.0496    5.7362   -0.2820 N   0  0  0  0  0  0  0  0  0  0  0  0
    7.4393    6.1287   -1.3831 C   0  0  0  0  0  0  0  0  0  0  0  0
    6.3449    6.9705   -1.3230 C   0  0  0  0  0  0  0  0  0  0  0  0
    1.9313    1.0269    1.5450 C   0  0  0  0  0  0  0  0  0  0  0  0
    1.7463   -0.3495    1.3758 F   0  0  0  0  0  0  0  0  0  0  0  0
    3.2152    1.3810    1.1167 F   0  0  0  0  0  0  0  0  0  0  0  0
    1.7839    1.3545    2.8971 F   0  0  0  0  0  0  0  0  0  0  0  0
   -1.6894    1.2140   -1.3504 H   0  0  0  0  0  0  0  0  0  0  0  0
   -0.0067   -0.0015   -0.0279 H   0  0  0  0  0  0  0  0  0  0  0  0
    1.6218    3.7001    1.3242 H   0  0  0  0  0  0  0  0  0  0  0  0
   -1.7224    3.6747   -1.3412 H   0  0  0  0  0  0  0  0  0  0  0  0
   -0.9110    5.7189   -0.0761 H   0  0  0  0  0  0  0  0  0  0  0  0
   -1.0885    7.5561    0.3634 H   0  0  0  0  0  0  0  0  0  0  0  0
    0.9868   11.1505    0.5510 H   0  0  0  0  0  0  0  0  0  0  0  0
    3.5268    6.5539    0.1248 H   0  0  0  0  0  0  0  0  0  0  0  0
    4.6469    8.9501   -0.8653 H   0  0  0  0  0  0  0  0  0  0  0  0
    4.8058    8.9472    0.9076 H   0  0  0  0  0  0  0  0  0  0  0  0
    6.2378    7.2905    2.0291 H   0  0  0  0  0  0  0  0  0  0  0  0
    8.1710    5.7836    1.7907 H   0  0  0  0  0  0  0  0  0  0  0  0
    7.7991    5.7887   -2.3429 H   0  0  0  0  0  0  0  0  0  0  0  0
    5.8497    7.2891   -2.2284 H   0  0  0  0  0  0  0  0  0  0  0  0
  1  6  2  0  0  0  0
  1  2  1  0  0  0  0
  1 28  1  0  0  0  0
  2  3  2  0  0  0  0
  2 29  1  0  0  0  0
  3  4  1  0  0  0  0
  3 24  1  0  0  0  0
  4  5  2  0  0  0  0
  4 30  1  0  0  0  0
  5  6  1  0  0  0  0
  5  7  1  0  0  0  0
  6 31  1  0  0  0  0
  7  8  1  0  0  0  0
  7 32  1  0  0  0  0
  8  9  2  0  0  0  0
  8 10  1  0  0  0  0
 10 15  2  0  0  0  0
 10 11  1  0  0  0  0
 11 12  2  0  0  0  0
 11 33  1  0  0  0  0
 12 13  1  0  0  0  0
 13 14  2  0  0  0  0
 13 34  1  0  0  0  0
 14 15  1  0  0  0  0
 15 16  1  0  0  0  0
 16 17  1  0  0  0  0
 16 35  1  0  0  0  0
 17 18  1  0  0  0  0
 17 36  1  0  0  0  0
 17 37  1  0  0  0  0
 18 23  2  0  0  0  0
 18 19  1  0  0  0  0
 19 20  2  0  0  0  0
 19 38  1  0  0  0  0
 20 21  1  0  0  0  0
 20 39  1  0  0  0  0
 21 22  2  0  0  0  0
 22 23  1  0  0  0  0
 22 40  1  0  0  0  0
 23 41  1  0  0  0  0
 24 25  1  0  0  0  0
 24 26  1  0  0  0  0
 24 27  1  0  0  0  0
M  END
$$$$
ZINC03832396
  -OEChem-08230709403D

 32 35  0     0  0  0  0  0  0999 V2000
    2.7624    6.8756    0.0161 C   0  0  0  0  0  0  0  0  0  0  0  0
    3.3979    8.1000    0.0103 C   0  0  0  0  0  0  0  0  0  0  0  0
    2.7049    9.2227    0.0217 N   0  0  0  0  0  0  0  0  0  0  0  0
    1.3856    9.2301    0.0336 C   0  0  0  0  0  0  0  0  0  0  0  0
    0.6709    8.0501    0.0346 C   0  0  0  0  0  0  0  0  0  0  0  0
    1.3651    6.8369    0.0227 C   0  0  0  0  0  0  0  0  0  0  0  0
    0.6387    5.5434    0.0232 C   0  0  0  0  0  0  0  0  0  0  0  0
   -0.7725    5.5161    0.0362 C   0  0  0  0  0  0  0  0  0  0  0  0
   -1.4074    4.3683    0.0369 N   0  0  0  0  0  0  0  0  0  0  0  0
   -0.7383    3.2108    0.0255 C   0  0  0  0  0  0  0  0  0  0  0  0
   -1.1624    1.8751    0.0171 C   0  0  0  0  0  0  0  0  0  0  0  0
   -0.0126    1.0758    0.0080 C   0  0  0  0  0  0  0  0  0  0  0  0
    1.0425    1.8526    0.0021 N   0  0  0  0  0  0  0  0  0  0  0  0
    0.6315    3.1902    0.0127 N   0  0  0  0  0  0  0  0  0  0  0  0
    1.3278    4.3621    0.0114 C   0  0  0  0  0  0  0  0  0  0  0  0
   -2.5630    1.3985    0.0208 C   0  0  0  0  0  0  0  0  0  0  0  0
   -3.4874    1.8889    0.9509 C   0  0  0  0  0  0  0  0  0  0  0  0
   -4.7832    1.4206    0.9159 C   0  0  0  0  0  0  0  0  0  0  0  0
   -5.1533    0.5160    0.0285 N   0  0  0  0  0  0  0  0  0  0  0  0
   -4.3127    0.0241   -0.8627 C   0  0  0  0  0  0  0  0  0  0  0  0
   -2.9993    0.4403   -0.9020 C   0  0  0  0  0  0  0  0  0  0  0  0
    3.3359    5.9605    0.0117 H   0  0  0  0  0  0  0  0  0  0  0  0
    4.4771    8.1401    0.0004 H   0  0  0  0  0  0  0  0  0  0  0  0
    0.8581   10.1725    0.0431 H   0  0  0  0  0  0  0  0  0  0  0  0
   -0.4090    8.0635    0.0440 H   0  0  0  0  0  0  0  0  0  0  0  0
   -1.3300    6.4410    0.0451 H   0  0  0  0  0  0  0  0  0  0  0  0
    0.0021   -0.0041    0.0020 H   0  0  0  0  0  0  0  0  0  0  0  0
    2.4077    4.3578    0.0017 H   0  0  0  0  0  0  0  0  0  0  0  0
   -3.1905    2.6259    1.6824 H   0  0  0  0  0  0  0  0  0  0  0  0
   -5.5044    1.7953    1.6271 H   0  0  0  0  0  0  0  0  0  0  0  0
   -4.6587   -0.7147   -1.5704 H   0  0  0  0  0  0  0  0  0  0  0  0
   -2.3171    0.0335   -1.6338 H   0  0  0  0  0  0  0  0  0  0  0  0
  1  6  2  0  0  0  0
  1  2  1  0  0  0  0
  1 22  1  0  0  0  0
  2  3  2  0  0  0  0
  2 23  1  0  0  0  0
  3  4  1  0  0  0  0
  4  5  2  0  0  0  0
  4 24  1  0  0  0  0
  5  6  1  0  0  0  0
  5 25  1  0  0  0  0
  6  7  1  0  0  0  0
  7 15  2  0  0  0  0
  7  8  1  0  0  0  0
  8  9  2  0  0  0  0
  8 26  1  0  0  0  0
  9 10  1  0  0  0  0
 10 14  1  0  0  0  0
 10 11  2  0  0  0  0
 11 12  1  0  0  0  0
 11 16  1  0  0  0  0
 12 13  2  0  0  0  0
 12 27  1  0  0  0  0
 13 14  1  0  0  0  0
 14 15  1  0  0  0  0
 15 28  1  0  0  0  0
 16 21  2  0  0  0  0
 16 17  1  0  0  0  0
 17 18  2  0  0  0  0
 17 29  1  0  0  0  0
 18 19  1  0  0  0  0
 18 30  1  0  0  0  0
 19 20  2  0  0  0  0
 20 21  1  0  0  0  0
 20 31  1  0  0  0  0
 21 32  1  0  0  0  0
M  END
$$$$
ZINC03832397
  -OEChem-08230709403D

 45 47  0     0  0  0  0  0  0999 V2000
    1.0734    4.8971    6.0123 C   0  0  0  0  0  0  0  0  0  0  0  0
    1.0128    4.4233    4.5588 C   0  0  0  0  0  0  0  0  0  0  0  0
   -0.1573    3.6259    4.3661 O   0  0  0  0  0  0  0  0  0  0  0  0
   -0.3629    3.1225    3.1197 C   0  0  0  0  0  0  0  0  0  0  0  0
    0.5337    3.3903    2.1257 C   0  0  0  0  0  0  0  0  0  0  0  0
    0.3244    2.8723    0.8391 C   0  0  0  0  0  0  0  0  0  0  0  0
   -0.8146    2.0735    0.5756 C   0  0  0  0  0  0  0  0  0  0  0  0
   -1.7215    1.8120    1.6140 C   0  0  0  0  0  0  0  0  0  0  0  0
   -1.4931    2.3325    2.8675 C   0  0  0  0  0  0  0  0  0  0  0  0
   -2.3723    2.0776    3.8714 O   0  0  0  0  0  0  0  0  0  0  0  0
   -3.5041    1.2659    3.5519 C   0  0  0  0  0  0  0  0  0  0  0  0
   -1.0230    1.5789   -0.6536 N   0  0  0  0  0  0  0  0  0  0  0  0
   -0.1930    1.8011   -1.6404 C   0  0  0  0  0  0  0  0  0  0  0  0
    0.9615    2.5820   -1.4694 C   0  0  0  0  0  0  0  0  0  0  0  0
    1.2366    3.1341   -0.2093 C   0  0  0  0  0  0  0  0  0  0  0  0
    2.3612    3.9073    0.0004 N   0  0  0  0  0  0  0  0  0  0  0  0
    3.5575    3.3063    0.4005 C   0  0  0  0  0  0  0  0  0  0  0  0
    3.5859    1.9520    0.7115 C   0  0  0  0  0  0  0  0  0  0  0  0
    4.7697    1.3570    1.1014 C   0  0  0  0  0  0  0  0  0  0  0  0
    5.9262    2.1084    1.1944 C   0  0  0  0  0  0  0  0  0  0  0  0
    5.9026    3.4623    0.8907 C   0  0  0  0  0  0  0  0  0  0  0  0
    4.7179    4.0622    0.4935 C   0  0  0  0  0  0  0  0  0  0  0  0
    7.0406    4.1995    0.9823 O   0  0  0  0  0  0  0  0  0  0  0  0
    7.2143    1.4565    1.6268 C   0  0  0  0  0  0  0  0  0  0  0  0
    1.8484    2.8128   -2.5698 C   0  0  0  0  0  0  0  0  0  0  0  0
    2.5520    2.9959   -3.4426 N   0  0  0  0  0  0  0  0  0  0  0  0
    1.9659    5.5053    6.1592 H   0  0  0  0  0  0  0  0  0  0  0  0
    0.1877    5.4911    6.2380 H   0  0  0  0  0  0  0  0  0  0  0  0
    1.1096    4.0326    6.6751 H   0  0  0  0  0  0  0  0  0  0  0  0
    1.8984    3.8293    4.3330 H   0  0  0  0  0  0  0  0  0  0  0  0
    0.9765    5.2879    3.8960 H   0  0  0  0  0  0  0  0  0  0  0  0
    1.4018    3.9996    2.3293 H   0  0  0  0  0  0  0  0  0  0  0  0
   -2.5952    1.2043    1.4304 H   0  0  0  0  0  0  0  0  0  0  0  0
   -4.1236    1.1405    4.4400 H   0  0  0  0  0  0  0  0  0  0  0  0
   -4.0872    1.7481    2.7673 H   0  0  0  0  0  0  0  0  0  0  0  0
   -3.1649    0.2899    3.2048 H   0  0  0  0  0  0  0  0  0  0  0  0
   -0.4032    1.3773   -2.6113 H   0  0  0  0  0  0  0  0  0  0  0  0
    2.3208    4.8676   -0.1300 H   0  0  0  0  0  0  0  0  0  0  0  0
    2.6828    1.3636    0.6439 H   0  0  0  0  0  0  0  0  0  0  0  0
    4.7910    0.3036    1.3383 H   0  0  0  0  0  0  0  0  0  0  0  0
    4.6977    5.1159    0.2571 H   0  0  0  0  0  0  0  0  0  0  0  0
    7.1816    4.5989    1.8516 H   0  0  0  0  0  0  0  0  0  0  0  0
    7.3051    1.5154    2.7114 H   0  0  0  0  0  0  0  0  0  0  0  0
    7.2137    0.4110    1.3185 H   0  0  0  0  0  0  0  0  0  0  0  0
    8.0556    1.9716    1.1632 H   0  0  0  0  0  0  0  0  0  0  0  0
  1  2  1  0  0  0  0
  1 27  1  0  0  0  0
  1 28  1  0  0  0  0
  1 29  1  0  0  0  0
  2  3  1  0  0  0  0
  2 30  1  0  0  0  0
  2 31  1  0  0  0  0
  3  4  1  0  0  0  0
  4  9  2  0  0  0  0
  4  5  1  0  0  0  0
  5  6  2  0  0  0  0
  5 32  1  0  0  0  0
  6 15  1  0  0  0  0
  6  7  1  0  0  0  0
  7  8  2  0  0  0  0
  7 12  1  0  0  0  0
  8  9  1  0  0  0  0
  8 33  1  0  0  0  0
  9 10  1  0  0  0  0
 10 11  1  0  0  0  0
 11 34  1  0  0  0  0
 11 35  1  0  0  0  0
 11 36  1  0  0  0  0
 12 13  2  0  0  0  0
 13 14  1  0  0  0  0
 13 37  1  0  0  0  0
 14 15  2  0  0  0  0
 14 25  1  0  0  0  0
 15 16  1  0  0  0  0
 16 17  1  0  0  0  0
 16 38  1  0  0  0  0
 17 22  2  0  0  0  0
 17 18  1  0  0  0  0
 18 19  2  0  0  0  0
 18 39  1  0  0  0  0
 19 20  1  0  0  0  0
 19 40  1  0  0  0  0
 20 21  2  0  0  0  0
 20 24  1  0  0  0  0
 21 22  1  0  0  0  0
 21 23  1  0  0  0  0
 22 41  1  0  0  0  0
 23 42  1  0  0  0  0
 24 43  1  0  0  0  0
 24 44  1  0  0  0  0
 24 45  1  0  0  0  0
 25 26  3  0  0  0  0
M  END
$$$$
ZINC03832398
  -OEChem-08230709403D

 43 46  0     0  0  0  0  0  0999 V2000
    3.3523   -3.3683   -0.8375 C   0  0  0  0  0  0  0  0  0  0  0  0
    4.6127   -3.9613   -0.8374 C   0  0  0  0  0  0  0  0  0  0  0  0
    5.7380   -3.2223   -1.0552 C   0  0  0  0  0  0  0  0  0  0  0  0
    5.6232   -1.8468   -1.2813 C   0  0  0  0  0  0  0  0  0  0  0  0
    4.3394   -1.2415   -1.2816 C   0  0  0  0  0  0  0  0  0  0  0  0
    3.2044   -2.0306   -1.0549 C   0  0  0  0  0  0  0  0  0  0  0  0
    4.2687    0.1445   -1.5139 C   0  0  0  0  0  0  0  0  0  0  0  0
    5.3786    0.8143   -1.7242 N   0  0  0  0  0  0  0  0  0  0  0  0
    6.5410    0.2762   -1.7201 N   0  0  0  0  0  0  0  0  0  0  0  0
    6.7412   -1.0141   -1.5147 C   0  0  0  0  0  0  0  0  0  0  0  0
    8.0229   -1.5405   -1.5283 N   0  0  0  0  0  0  0  0  0  0  0  0
    9.1268   -0.6900   -1.6397 C   0  0  0  0  0  0  0  0  0  0  0  0
   10.2516   -1.0984   -2.3452 C   0  0  0  0  0  0  0  0  0  0  0  0
   11.3384   -0.2538   -2.4585 C   0  0  0  0  0  0  0  0  0  0  0  0
   11.3120    0.9939   -1.8604 C   0  0  0  0  0  0  0  0  0  0  0  0
   10.1950    1.4011   -1.1522 C   0  0  0  0  0  0  0  0  0  0  0  0
    9.1031    0.5630   -1.0404 C   0  0  0  0  0  0  0  0  0  0  0  0
   12.6825    2.0503   -1.9993 Cl  0  0  0  0  0  0  0  0  0  0  0  0
    2.9370    0.8497   -1.5273 C   0  0  0  0  0  0  0  0  0  0  0  0
    2.6009    1.3317   -0.1146 C   0  0  0  0  0  0  0  0  0  0  0  0
    1.2691    2.0369   -0.1281 C   0  0  0  0  0  0  0  0  0  0  0  0
    0.0926    1.3358    0.0875 C   0  0  0  0  0  0  0  0  0  0  0  0
   -1.1107    2.0152    0.0617 C   0  0  0  0  0  0  0  0  0  0  0  0
   -1.1464    3.3157   -0.1537 N   0  0  0  0  0  0  0  0  0  0  0  0
   -0.0477    4.0145   -0.3621 C   0  0  0  0  0  0  0  0  0  0  0  0
    1.1912    3.4022   -0.3567 C   0  0  0  0  0  0  0  0  0  0  0  0
    2.4782   -3.9781   -0.6630 H   0  0  0  0  0  0  0  0  0  0  0  0
    4.7002   -5.0235   -0.6624 H   0  0  0  0  0  0  0  0  0  0  0  0
    6.7092   -3.6947   -1.0525 H   0  0  0  0  0  0  0  0  0  0  0  0
    2.2214   -1.5834   -1.0520 H   0  0  0  0  0  0  0  0  0  0  0  0
    8.1542   -2.4992   -1.4606 H   0  0  0  0  0  0  0  0  0  0  0  0
   10.2744   -2.0738   -2.8084 H   0  0  0  0  0  0  0  0  0  0  0  0
   12.2113   -0.5690   -3.0109 H   0  0  0  0  0  0  0  0  0  0  0  0
   10.1770    2.3755   -0.6867 H   0  0  0  0  0  0  0  0  0  0  0  0
    8.2315    0.8815   -0.4879 H   0  0  0  0  0  0  0  0  0  0  0  0
    2.1646    0.1610   -1.8696 H   0  0  0  0  0  0  0  0  0  0  0  0
    2.9856    1.7051   -2.2011 H   0  0  0  0  0  0  0  0  0  0  0  0
    3.3733    2.0205    0.2276 H   0  0  0  0  0  0  0  0  0  0  0  0
    2.5523    0.4763    0.5592 H   0  0  0  0  0  0  0  0  0  0  0  0
    0.1157    0.2713    0.2688 H   0  0  0  0  0  0  0  0  0  0  0  0
   -2.0320    1.4755    0.2242 H   0  0  0  0  0  0  0  0  0  0  0  0
   -0.1169    5.0776   -0.5394 H   0  0  0  0  0  0  0  0  0  0  0  0
    2.0874    3.9798   -0.5287 H   0  0  0  0  0  0  0  0  0  0  0  0
  1  6  2  0  0  0  0
  1  2  1  0  0  0  0
  1 27  1  0  0  0  0
  2  3  2  0  0  0  0
  2 28  1  0  0  0  0
  3  4  1  0  0  0  0
  3 29  1  0  0  0  0
  4 10  2  0  0  0  0
  4  5  1  0  0  0  0
  5  6  1  0  0  0  0
  5  7  2  0  0  0  0
  6 30  1  0  0  0  0
  7  8  1  0  0  0  0
  7 19  1  0  0  0  0
  8  9  2  0  0  0  0
  9 10  1  0  0  0  0
 10 11  1  0  0  0  0
 11 12  1  0  0  0  0
 11 31  1  0  0  0  0
 12 17  2  0  0  0  0
 12 13  1  0  0  0  0
 13 14  2  0  0  0  0
 13 32  1  0  0  0  0
 14 15  1  0  0  0  0
 14 33  1  0  0  0  0
 15 16  2  0  0  0  0
 15 18  1  0  0  0  0
 16 17  1  0  0  0  0
 16 34  1  0  0  0  0
 17 35  1  0  0  0  0
 19 20  1  0  0  0  0
 19 36  1  0  0  0  0
 19 37  1  0  0  0  0
 20 21  1  0  0  0  0
 20 38  1  0  0  0  0
 20 39  1  0  0  0  0
 21 26  2  0  0  0  0
 21 22  1  0  0  0  0
 22 23  2  0  0  0  0
 22 40  1  0  0  0  0
 23 24  1  0  0  0  0
 23 41  1  0  0  0  0
 24 25  2  0  0  0  0
 25 26  1  0  0  0  0
 25 42  1  0  0  0  0
 26 43  1  0  0  0  0
M  END
$$$$
ZINC03832399
  -OEChem-08230709403D

 44 47  0     0  0  0  0  0  0999 V2000
    4.9359   -2.7638   -0.4949 C   0  0  0  0  0  0  0  0  0  0  0  0
    3.6252   -2.0319   -0.3622 C   0  0  0  0  0  0  0  0  0  0  0  0
    3.5003   -0.7457   -0.8528 C   0  0  0  0  0  0  0  0  0  0  0  0
    2.2994   -0.0734   -0.7375 C   0  0  0  0  0  0  0  0  0  0  0  0
    1.2160   -0.6857   -0.1187 C   0  0  0  0  0  0  0  0  0  0  0  0
    1.3397   -1.9774    0.3740 C   0  0  0  0  0  0  0  0  0  0  0  0
    2.5453   -2.6504    0.2519 C   0  0  0  0  0  0  0  0  0  0  0  0
    2.6699   -3.9150    0.7337 O   0  0  0  0  0  0  0  0  0  0  0  0
    0.0021   -0.0041    0.0020 N   0  0  0  0  0  0  0  0  0  0  0  0
   -0.0064    1.3715    0.1702 C   0  0  0  0  0  0  0  0  0  0  0  0
   -1.2247    2.0888    0.1763 C   0  0  0  0  0  0  0  0  0  0  0  0
   -2.4692    1.4681    0.0285 C   0  0  0  0  0  0  0  0  0  0  0  0
   -3.6027    2.2263    0.0519 C   0  0  0  0  0  0  0  0  0  0  0  0
   -3.5402    3.6069    0.2253 C   0  0  0  0  0  0  0  0  0  0  0  0
   -2.3440    4.2431    0.3775 C   0  0  0  0  0  0  0  0  0  0  0  0
   -1.1602    3.4946    0.3589 C   0  0  0  0  0  0  0  0  0  0  0  0
    0.1117    4.0780    0.5098 C   0  0  0  0  0  0  0  0  0  0  0  0
    1.1749    3.3080    0.4815 N   0  0  0  0  0  0  0  0  0  0  0  0
    1.1244    2.0381    0.3226 N   0  0  0  0  0  0  0  0  0  0  0  0
    0.2514    5.5662    0.7016 C   0  0  0  0  0  0  0  0  0  0  0  0
    0.3860    6.2355   -0.6419 C   0  0  0  0  0  0  0  0  0  0  0  0
    1.6334    6.4371   -1.2126 C   0  0  0  0  0  0  0  0  0  0  0  0
    1.7175    7.0505   -2.4482 C   0  0  0  0  0  0  0  0  0  0  0  0
    0.6302    7.4505   -3.0781 N   0  0  0  0  0  0  0  0  0  0  0  0
   -0.5718    7.2794   -2.5635 C   0  0  0  0  0  0  0  0  0  0  0  0
   -0.7342    6.6694   -1.3341 C   0  0  0  0  0  0  0  0  0  0  0  0
    4.9505   -3.3154   -1.4348 H   0  0  0  0  0  0  0  0  0  0  0  0
    5.7559   -2.0457   -0.4823 H   0  0  0  0  0  0  0  0  0  0  0  0
    5.0493   -3.4594    0.3365 H   0  0  0  0  0  0  0  0  0  0  0  0
    4.3421   -0.2671   -1.3309 H   0  0  0  0  0  0  0  0  0  0  0  0
    2.2031    0.9300   -1.1253 H   0  0  0  0  0  0  0  0  0  0  0  0
    0.4981   -2.4573    0.8513 H   0  0  0  0  0  0  0  0  0  0  0  0
    2.4467   -4.6038    0.0927 H   0  0  0  0  0  0  0  0  0  0  0  0
   -0.8346   -0.4937   -0.0319 H   0  0  0  0  0  0  0  0  0  0  0  0
   -2.5319    0.3984   -0.1067 H   0  0  0  0  0  0  0  0  0  0  0  0
   -4.5641    1.7486   -0.0664 H   0  0  0  0  0  0  0  0  0  0  0  0
   -4.4538    4.1826    0.2391 H   0  0  0  0  0  0  0  0  0  0  0  0
   -2.3096    5.3142    0.5116 H   0  0  0  0  0  0  0  0  0  0  0  0
   -0.6312    5.9512    1.2125 H   0  0  0  0  0  0  0  0  0  0  0  0
    1.1377    5.7737    1.3013 H   0  0  0  0  0  0  0  0  0  0  0  0
    2.5279    6.1158   -0.6996 H   0  0  0  0  0  0  0  0  0  0  0  0
    2.6852    7.2082   -2.9011 H   0  0  0  0  0  0  0  0  0  0  0  0
   -1.4394    7.6203   -3.1090 H   0  0  0  0  0  0  0  0  0  0  0  0
   -1.7213    6.5328   -0.9176 H   0  0  0  0  0  0  0  0  0  0  0  0
  1  2  1  0  0  0  0
  1 27  1  0  0  0  0
  1 28  1  0  0  0  0
  1 29  1  0  0  0  0
  2  7  2  0  0  0  0
  2  3  1  0  0  0  0
  3  4  2  0  0  0  0
  3 30  1  0  0  0  0
  4  5  1  0  0  0  0
  4 31  1  0  0  0  0
  5  6  2  0  0  0  0
  5  9  1  0  0  0  0
  6  7  1  0  0  0  0
  6 32  1  0  0  0  0
  7  8  1  0  0  0  0
  8 33  1  0  0  0  0
  9 10  1  0  0  0  0
  9 34  1  0  0  0  0
 10 19  2  0  0  0  0
 10 11  1  0  0  0  0
 11 16  2  0  0  0  0
 11 12  1  0  0  0  0
 12 13  2  0  0  0  0
 12 35  1  0  0  0  0
 13 14  1  0  0  0  0
 13 36  1  0  0  0  0
 14 15  2  0  0  0  0
 14 37  1  0  0  0  0
 15 16  1  0  0  0  0
 15 38  1  0  0  0  0
 16 17  1  0  0  0  0
 17 18  2  0  0  0  0
 17 20  1  0  0  0  0
 18 19  1  0  0  0  0
 20 21  1  0  0  0  0
 20 39  1  0  0  0  0
 20 40  1  0  0  0  0
 21 26  2  0  0  0  0
 21 22  1  0  0  0  0
 22 23  2  0  0  0  0
 22 41  1  0  0  0  0
 23 24  1  0  0  0  0
 23 42  1  0  0  0  0
 24 25  2  0  0  0  0
 25 26  1  0  0  0  0
 25 43  1  0  0  0  0
 26 44  1  0  0  0  0
M  END
$$$$
ZINC03832400
  -OEChem-08230709403D

 74 77  0     0  0  0  0  0  0999 V2000
    7.4364    5.4025    0.5557 C   0  0  0  0  0  0  0  0  0  0  0  0
    7.6052    4.7565    1.9323 C   0  0  0  0  0  0  0  0  0  0  0  0
    8.3983    3.5315    1.8030 N   0  0  0  0  0  0  0  0  0  0  0  0
    7.7675    2.3356    1.5702 C   0  0  0  0  0  0  0  0  0  0  0  0
    8.5172    1.1460    1.4425 C   0  0  0  0  0  0  0  0  0  0  0  0
    9.9259    1.1777    1.5537 C   0  0  0  0  0  0  0  0  0  0  0  0
   10.5466    2.3758    1.7861 C   0  0  0  0  0  0  0  0  0  0  0  0
    9.7394    3.5909    1.9134 C   0  0  0  0  0  0  0  0  0  0  0  0
   10.2836    4.6609    2.1205 O   0  0  0  0  0  0  0  0  0  0  0  0
   12.0219    2.4423    1.9072 C   0  0  0  0  0  0  0  0  0  0  0  0
   12.6076    2.8155    3.1159 C   0  0  0  0  0  0  0  0  0  0  0  0
   13.9873    2.8719    3.2268 C   0  0  0  0  0  0  0  0  0  0  0  0
   14.7858    2.5673    2.1340 C   0  0  0  0  0  0  0  0  0  0  0  0
   14.2062    2.2010    0.9278 C   0  0  0  0  0  0  0  0  0  0  0  0
   12.8273    2.1374    0.8111 C   0  0  0  0  0  0  0  0  0  0  0  0
   14.9922    1.9039   -0.1403 O   0  0  0  0  0  0  0  0  0  0  0  0
   16.4058    1.9901    0.0505 C   0  0  0  0  0  0  0  0  0  0  0  0
   14.5592    3.2306    4.4063 O   0  0  0  0  0  0  0  0  0  0  0  0
   15.9869    3.2730    4.4486 C   0  0  0  0  0  0  0  0  0  0  0  0
    7.8338   -0.0558    1.2039 C   0  0  0  0  0  0  0  0  0  0  0  0
    6.5178   -0.0260    1.1083 N   0  0  0  0  0  0  0  0  0  0  0  0
    5.8449    1.1127    1.2338 C   0  0  0  0  0  0  0  0  0  0  0  0
    6.4459    2.2720    1.4541 N   0  0  0  0  0  0  0  0  0  0  0  0
    4.4681    1.0872    1.1249 N   0  0  0  0  0  0  0  0  0  0  0  0
    3.7988   -0.1355    0.9933 C   0  0  0  0  0  0  0  0  0  0  0  0
    4.2823   -1.2654    1.6398 C   0  0  0  0  0  0  0  0  0  0  0  0
    3.6213   -2.4708    1.5098 C   0  0  0  0  0  0  0  0  0  0  0  0
    2.4746   -2.5533    0.7336 C   0  0  0  0  0  0  0  0  0  0  0  0
    1.9906   -1.4250    0.0878 C   0  0  0  0  0  0  0  0  0  0  0  0
    2.6507   -0.2189    0.2164 C   0  0  0  0  0  0  0  0  0  0  0  0
    1.8242   -3.7407    0.6061 O   0  0  0  0  0  0  0  0  0  0  0  0
    0.6501   -3.7531   -0.2084 C   0  0  0  0  0  0  0  0  0  0  0  0
    0.0607   -5.1649   -0.2320 C   0  0  0  0  0  0  0  0  0  0  0  0
   -1.5262   -4.6837    1.5323 C   0  0  0  0  0  0  0  0  0  0  0  0
   -2.7004   -4.8939    0.5742 C   0  0  0  0  0  0  0  0  0  0  0  0
   -0.7499   -6.9511    1.1876 C   0  0  0  0  0  0  0  0  0  0  0  0
   -0.8886   -7.3691    2.6528 C   0  0  0  0  0  0  0  0  0  0  0  0
    8.4167    5.6459    0.1459 H   0  0  0  0  0  0  0  0  0  0  0  0
    6.9260    4.7079   -0.1115 H   0  0  0  0  0  0  0  0  0  0  0  0
    6.8463    6.3139    0.6519 H   0  0  0  0  0  0  0  0  0  0  0  0
    6.6250    4.5130    2.3421 H   0  0  0  0  0  0  0  0  0  0  0  0
    8.1157    5.4510    2.5995 H   0  0  0  0  0  0  0  0  0  0  0  0
   10.5039    0.2705    1.4572 H   0  0  0  0  0  0  0  0  0  0  0  0
   11.9865    3.0564    3.9660 H   0  0  0  0  0  0  0  0  0  0  0  0
   15.8610    2.6158    2.2222 H   0  0  0  0  0  0  0  0  0  0  0  0
   12.3769    1.8522   -0.1281 H   0  0  0  0  0  0  0  0  0  0  0  0
   16.6725    3.0076    0.3364 H   0  0  0  0  0  0  0  0  0  0  0  0
   16.7089    1.3002    0.8381 H   0  0  0  0  0  0  0  0  0  0  0  0
   16.9143    1.7283   -0.8774 H   0  0  0  0  0  0  0  0  0  0  0  0
   16.3122    3.5727    5.4448 H   0  0  0  0  0  0  0  0  0  0  0  0
   16.3867    2.2856    4.2176 H   0  0  0  0  0  0  0  0  0  0  0  0
   16.3510    3.9929    3.7156 H   0  0  0  0  0  0  0  0  0  0  0  0
    8.3732   -0.9857    1.1002 H   0  0  0  0  0  0  0  0  0  0  0  0
    3.9651    1.9164    1.1397 H   0  0  0  0  0  0  0  0  0  0  0  0
    5.1725   -1.2004    2.2478 H   0  0  0  0  0  0  0  0  0  0  0  0
    3.9970   -3.3496    2.0129 H   0  0  0  0  0  0  0  0  0  0  0  0
    1.0976   -1.4900   -0.5161 H   0  0  0  0  0  0  0  0  0  0  0  0
    2.2739    0.6594   -0.2865 H   0  0  0  0  0  0  0  0  0  0  0  0
   -0.0840   -3.0597    0.2018 H   0  0  0  0  0  0  0  0  0  0  0  0
    0.9086   -3.4503   -1.2231 H   0  0  0  0  0  0  0  0  0  0  0  0
   -0.7820   -5.1952   -0.9226 H   0  0  0  0  0  0  0  0  0  0  0  0
    0.8236   -5.8717   -0.5583 H   0  0  0  0  0  0  0  0  0  0  0  0
   -1.8292   -4.9556    2.5435 H   0  0  0  0  0  0  0  0  0  0  0  0
   -1.2242   -3.6366    1.5127 H   0  0  0  0  0  0  0  0  0  0  0  0
   -2.3927   -4.6370   -0.4395 H   0  0  0  0  0  0  0  0  0  0  0  0
   -3.0127   -5.9377    0.6056 H   0  0  0  0  0  0  0  0  0  0  0  0
   -3.5324   -4.2565    0.8738 H   0  0  0  0  0  0  0  0  0  0  0  0
   -1.6951   -7.1179    0.6711 H   0  0  0  0  0  0  0  0  0  0  0  0
    0.0328   -7.5432    0.7133 H   0  0  0  0  0  0  0  0  0  0  0  0
   -1.6544   -6.7603    3.1334 H   0  0  0  0  0  0  0  0  0  0  0  0
   -1.1737   -8.4199    2.7054 H   0  0  0  0  0  0  0  0  0  0  0  0
    0.0635   -7.2250    3.1634 H   0  0  0  0  0  0  0  0  0  0  0  0
   -0.3759   -5.5221    1.1342 N   0  3  0  0  0  0  0  0  0  0  0  0
    0.3995   -5.3557    1.7864 H   0  0  0  0  0  0  0  0  0  0  0  0
  1  2  1  0  0  0  0
  1 38  1  0  0  0  0
  1 39  1  0  0  0  0
  1 40  1  0  0  0  0
  2  3  1  0  0  0  0
  2 41  1  0  0  0  0
  2 42  1  0  0  0  0
  3  8  1  0  0  0  0
  3  4  1  0  0  0  0
  4 23  2  0  0  0  0
  4  5  1  0  0  0  0
  5  6  1  0  0  0  0
  5 20  2  0  0  0  0
  6  7  2  0  0  0  0
  6 43  1  0  0  0  0
  7  8  1  0  0  0  0
  7 10  1  0  0  0  0
  8  9  2  0  0  0  0
 10 15  2  0  0  0  0
 10 11  1  0  0  0  0
 11 12  2  0  0  0  0
 11 44  1  0  0  0  0
 12 13  1  0  0  0  0
 12 18  1  0  0  0  0
 13 14  2  0  0  0  0
 13 45  1  0  0  0  0
 14 15  1  0  0  0  0
 14 16  1  0  0  0  0
 15 46  1  0  0  0  0
 16 17  1  0  0  0  0
 17 47  1  0  0  0  0
 17 48  1  0  0  0  0
 17 49  1  0  0  0  0
 18 19  1  0  0  0  0
 19 50  1  0  0  0  0
 19 51  1  0  0  0  0
 19 52  1  0  0  0  0
 20 21  1  0  0  0  0
 20 53  1  0  0  0  0
 21 22  2  0  0  0  0
 22 23  1  0  0  0  0
 22 24  1  0  0  0  0
 24 25  1  0  0  0  0
 24 54  1  0  0  0  0
 25 30  2  0  0  0  0
 25 26  1  0  0  0  0
 26 27  2  0  0  0  0
 26 55  1  0  0  0  0
 27 28  1  0  0  0  0
 27 56  1  0  0  0  0
 28 29  2  0  0  0  0
 28 31  1  0  0  0  0
 29 30  1  0  0  0  0
 29 57  1  0  0  0  0
 30 58  1  0  0  0  0
 31 32  1  0  0  0  0
 32 33  1  0  0  0  0
 32 59  1  0  0  0  0
 32 60  1  0  0  0  0
 33 61  1  0  0  0  0
 33 62  1  0  0  0  0
 33 73  1  0  0  0  0
 34 35  1  0  0  0  0
 34 63  1  0  0  0  0
 34 64  1  0  0  0  0
 34 73  1  0  0  0  0
 35 65  1  0  0  0  0
 35 66  1  0  0  0  0
 35 67  1  0  0  0  0
 36 37  1  0  0  0  0
 36 68  1  0  0  0  0
 36 69  1  0  0  0  0
 36 73  1  0  0  0  0
 37 70  1  0  0  0  0
 37 71  1  0  0  0  0
 37 72  1  0  0  0  0
 73 74  1  0  0  0  0
M  CHG  1  73   1
M  END
$$$$
ZINC03832401
  -OEChem-08230709403D

 42 45  0     0  0  0  0  0  0999 V2000
    1.0177    4.4135    4.5620 C   0  0  0  0  0  0  0  0  0  0  0  0
   -0.1523    3.6160    4.3690 O   0  0  0  0  0  0  0  0  0  0  0  0
   -0.3592    3.1151    3.1219 C   0  0  0  0  0  0  0  0  0  0  0  0
    0.5362    3.3853    2.1273 C   0  0  0  0  0  0  0  0  0  0  0  0
    0.3255    2.8700    0.8400 C   0  0  0  0  0  0  0  0  0  0  0  0
   -0.8134    2.0712    0.5761 C   0  0  0  0  0  0  0  0  0  0  0  0
   -1.7189    1.8072    1.6150 C   0  0  0  0  0  0  0  0  0  0  0  0
   -1.4893    2.3252    2.8694 C   0  0  0  0  0  0  0  0  0  0  0  0
   -2.3672    2.0679    3.8737 O   0  0  0  0  0  0  0  0  0  0  0  0
   -3.4991    1.2563    3.5538 C   0  0  0  0  0  0  0  0  0  0  0  0
   -1.0232    1.5795   -0.6540 N   0  0  0  0  0  0  0  0  0  0  0  0
   -0.1942    1.8037   -1.6413 C   0  0  0  0  0  0  0  0  0  0  0  0
    0.9601    2.5847   -1.4701 C   0  0  0  0  0  0  0  0  0  0  0  0
    1.2365    3.1344   -0.2090 C   0  0  0  0  0  0  0  0  0  0  0  0
    2.3607    3.9072    0.0009 N   0  0  0  0  0  0  0  0  0  0  0  0
    3.5592    3.3051    0.4013 C   0  0  0  0  0  0  0  0  0  0  0  0
    3.5841    1.9460    0.7121 C   0  0  0  0  0  0  0  0  0  0  0  0
    4.7554    1.3379    1.1026 C   0  0  0  0  0  0  0  0  0  0  0  0
    5.9269    2.0819    1.2007 C   0  0  0  0  0  0  0  0  0  0  0  0
    5.9050    3.4541    0.8933 C   0  0  0  0  0  0  0  0  0  0  0  0
    4.7129    4.0611    0.4928 C   0  0  0  0  0  0  0  0  0  0  0  0
    7.2739    3.9364    1.0933 C   0  0  0  0  0  0  0  0  0  0  0  0
    8.0073    2.8841    1.4893 C   0  0  0  0  0  0  0  0  0  0  0  0
    7.2206    1.7671    1.5595 N   0  0  0  0  0  0  0  0  0  0  0  0
    7.5271    0.8851    1.8225 H   0  0  0  0  0  0  0  0  0  0  0  0
    1.8456    2.8181   -2.5710 C   0  0  0  0  0  0  0  0  0  0  0  0
    2.5481    3.0032   -3.4444 N   0  0  0  0  0  0  0  0  0  0  0  0
    1.0619    4.7489    5.5982 H   0  0  0  0  0  0  0  0  0  0  0  0
    1.9033    3.8203    4.3341 H   0  0  0  0  0  0  0  0  0  0  0  0
    0.9803    5.2794    3.9011 H   0  0  0  0  0  0  0  0  0  0  0  0
    1.4043    3.9946    2.3312 H   0  0  0  0  0  0  0  0  0  0  0  0
   -2.5926    1.1995    1.4311 H   0  0  0  0  0  0  0  0  0  0  0  0
   -4.1175    1.1289    4.4423 H   0  0  0  0  0  0  0  0  0  0  0  0
   -4.0833    1.7399    2.7709 H   0  0  0  0  0  0  0  0  0  0  0  0
   -3.1599    0.2812    3.2043 H   0  0  0  0  0  0  0  0  0  0  0  0
   -0.4053    1.3814   -2.6127 H   0  0  0  0  0  0  0  0  0  0  0  0
    2.3202    4.8676   -0.1290 H   0  0  0  0  0  0  0  0  0  0  0  0
    2.6768    1.3643    0.6417 H   0  0  0  0  0  0  0  0  0  0  0  0
    4.7643    0.2836    1.3366 H   0  0  0  0  0  0  0  0  0  0  0  0
    4.6925    5.1146    0.2556 H   0  0  0  0  0  0  0  0  0  0  0  0
    7.6263    4.9470    0.9490 H   0  0  0  0  0  0  0  0  0  0  0  0
    9.0622    2.9148    1.7186 H   0  0  0  0  0  0  0  0  0  0  0  0
  1  2  1  0  0  0  0
  1 28  1  0  0  0  0
  1 29  1  0  0  0  0
  1 30  1  0  0  0  0
  2  3  1  0  0  0  0
  3  8  2  0  0  0  0
  3  4  1  0  0  0  0
  4  5  2  0  0  0  0
  4 31  1  0  0  0  0
  5 14  1  0  0  0  0
  5  6  1  0  0  0  0
  6  7  2  0  0  0  0
  6 11  1  0  0  0  0
  7  8  1  0  0  0  0
  7 32  1  0  0  0  0
  8  9  1  0  0  0  0
  9 10  1  0  0  0  0
 10 33  1  0  0  0  0
 10 34  1  0  0  0  0
 10 35  1  0  0  0  0
 11 12  2  0  0  0  0
 12 13  1  0  0  0  0
 12 36  1  0  0  0  0
 13 14  2  0  0  0  0
 13 26  1  0  0  0  0
 14 15  1  0  0  0  0
 15 16  1  0  0  0  0
 15 37  1  0  0  0  0
 16 21  2  0  0  0  0
 16 17  1  0  0  0  0
 17 18  2  0  0  0  0
 17 38  1  0  0  0  0
 18 19  1  0  0  0  0
 18 39  1  0  0  0  0
 19 24  1  0  0  0  0
 19 20  2  0  0  0  0
 20 21  1  0  0  0  0
 20 22  1  0  0  0  0
 21 40  1  0  0  0  0
 22 23  2  0  0  0  0
 22 41  1  0  0  0  0
 23 24  1  0  0  0  0
 23 42  1  0  0  0  0
 24 25  1  0  0  0  0
 26 27  3  0  0  0  0
M  END
$$$$
ZINC03832402
  -OEChem-08230709403D

 45 46  0     0  0  0  0  0  0999 V2000
    2.3598   -0.1526   -1.1845 C   0  0  0  0  0  0  0  0  0  0  0  0
    2.4242    0.7331    0.0615 C   0  0  0  0  0  0  0  0  0  0  0  0
    3.7392    1.5151    0.0640 C   0  0  0  0  0  0  0  0  0  0  0  0
    2.3491   -0.1425    1.3140 C   0  0  0  0  0  0  0  0  0  0  0  0
    1.2485    1.7122    0.0525 C   0  0  0  0  0  0  0  0  0  0  0  0
   -0.0106    0.9634    0.0501 N   0  0  0  0  0  0  0  0  0  0  0  0
   -1.1864    1.6221    0.0368 C   0  0  0  0  0  0  0  0  0  0  0  0
   -1.2020    2.8381    0.0319 O   0  0  0  0  0  0  0  0  0  0  0  0
   -2.4535    0.8685    0.0283 C   0  0  0  0  0  0  0  0  0  0  0  0
   -2.4427   -0.5237   -0.0905 C   0  0  0  0  0  0  0  0  0  0  0  0
   -3.6298   -1.2225   -0.0920 C   0  0  0  0  0  0  0  0  0  0  0  0
   -4.8379   -0.5511    0.0122 C   0  0  0  0  0  0  0  0  0  0  0  0
   -4.8657    0.8237    0.1244 C   0  0  0  0  0  0  0  0  0  0  0  0
   -3.6784    1.5455    0.1336 C   0  0  0  0  0  0  0  0  0  0  0  0
   -3.7037    2.9295    0.2460 N   0  0  0  0  0  0  0  0  0  0  0  0
   -4.9738    3.6226    0.4754 C   0  0  0  0  0  0  0  0  0  0  0  0
   -4.7280    5.1072    0.5583 C   0  0  0  0  0  0  0  0  0  0  0  0
   -4.4559    5.7146    1.7746 C   0  0  0  0  0  0  0  0  0  0  0  0
   -4.2316    7.0779    1.8113 C   0  0  0  0  0  0  0  0  0  0  0  0
   -4.2835    7.7999    0.7090 N   0  0  0  0  0  0  0  0  0  0  0  0
   -4.5440    7.2567   -0.4641 C   0  0  0  0  0  0  0  0  0  0  0  0
   -4.7742    5.8988   -0.5790 C   0  0  0  0  0  0  0  0  0  0  0  0
    2.4133    0.4712   -2.0768 H   0  0  0  0  0  0  0  0  0  0  0  0
    3.1973   -0.8501   -1.1781 H   0  0  0  0  0  0  0  0  0  0  0  0
    1.4229   -0.7097   -1.1863 H   0  0  0  0  0  0  0  0  0  0  0  0
    3.7850    2.1460    0.9516 H   0  0  0  0  0  0  0  0  0  0  0  0
    4.5767    0.8175    0.0704 H   0  0  0  0  0  0  0  0  0  0  0  0
    3.7927    2.1388   -0.8283 H   0  0  0  0  0  0  0  0  0  0  0  0
    1.4122   -0.6996    1.3122 H   0  0  0  0  0  0  0  0  0  0  0  0
    3.1866   -0.8401    1.3204 H   0  0  0  0  0  0  0  0  0  0  0  0
    2.3949    0.4884    2.2016 H   0  0  0  0  0  0  0  0  0  0  0  0
    1.3020    2.3360   -0.8398 H   0  0  0  0  0  0  0  0  0  0  0  0
    1.2944    2.3431    0.9402 H   0  0  0  0  0  0  0  0  0  0  0  0
    0.0019   -0.0065    0.0541 H   0  0  0  0  0  0  0  0  0  0  0  0
   -1.5045   -1.0517   -0.1768 H   0  0  0  0  0  0  0  0  0  0  0  0
   -3.6193   -2.2989   -0.1793 H   0  0  0  0  0  0  0  0  0  0  0  0
   -5.7635   -1.1076    0.0052 H   0  0  0  0  0  0  0  0  0  0  0  0
   -5.8112    1.3394    0.2048 H   0  0  0  0  0  0  0  0  0  0  0  0
   -2.8804    3.4371    0.1726 H   0  0  0  0  0  0  0  0  0  0  0  0
   -5.6562    3.4128   -0.3483 H   0  0  0  0  0  0  0  0  0  0  0  0
   -5.4141    3.2745    1.4097 H   0  0  0  0  0  0  0  0  0  0  0  0
   -4.4166    5.1294    2.6815 H   0  0  0  0  0  0  0  0  0  0  0  0
   -4.0158    7.5581    2.7542 H   0  0  0  0  0  0  0  0  0  0  0  0
   -4.5782    7.8803   -1.3452 H   0  0  0  0  0  0  0  0  0  0  0  0
   -4.9877    5.4600   -1.5424 H   0  0  0  0  0  0  0  0  0  0  0  0
  1  2  1  0  0  0  0
  1 23  1  0  0  0  0
  1 24  1  0  0  0  0
  1 25  1  0  0  0  0
  2  3  1  0  0  0  0
  2  4  1  0  0  0  0
  2  5  1  0  0  0  0
  3 26  1  0  0  0  0
  3 27  1  0  0  0  0
  3 28  1  0  0  0  0
  4 29  1  0  0  0  0
  4 30  1  0  0  0  0
  4 31  1  0  0  0  0
  5  6  1  0  0  0  0
  5 32  1  0  0  0  0
  5 33  1  0  0  0  0
  6  7  1  0  0  0  0
  6 34  1  0  0  0  0
  7  8  2  0  0  0  0
  7  9  1  0  0  0  0
  9 14  2  0  0  0  0
  9 10  1  0  0  0  0
 10 11  2  0  0  0  0
 10 35  1  0  0  0  0
 11 12  1  0  0  0  0
 11 36  1  0  0  0  0
 12 13  2  0  0  0  0
 12 37  1  0  0  0  0
 13 14  1  0  0  0  0
 13 38  1  0  0  0  0
 14 15  1  0  0  0  0
 15 16  1  0  0  0  0
 15 39  1  0  0  0  0
 16 17  1  0  0  0  0
 16 40  1  0  0  0  0
 16 41  1  0  0  0  0
 17 22  2  0  0  0  0
 17 18  1  0  0  0  0
 18 19  2  0  0  0  0
 18 42  1  0  0  0  0
 19 20  1  0  0  0  0
 19 43  1  0  0  0  0
 20 21  2  0  0  0  0
 21 22  1  0  0  0  0
 21 44  1  0  0  0  0
 22 45  1  0  0  0  0
M  END
$$$$
ZINC03832403
  -OEChem-08230709403D

 50 53  0     0  0  0  0  0  0999 V2000
   -1.5087   -0.8853    0.1378 C   0  0  0  0  0  0  0  0  0  0  0  0
   -2.6512   -0.0866    0.1324 C   0  0  0  0  0  0  0  0  0  0  0  0
   -2.5598    1.2717    0.1124 C   0  0  0  0  0  0  0  0  0  0  0  0
   -1.2946    1.8806    0.1022 C   0  0  0  0  0  0  0  0  0  0  0  0
   -1.1423    3.2759    0.0759 C   0  0  0  0  0  0  0  0  0  0  0  0
    0.0571    3.8076    0.0623 N   0  0  0  0  0  0  0  0  0  0  0  0
    1.1682    3.0752    0.0674 C   0  0  0  0  0  0  0  0  0  0  0  0
    1.1236    1.6967    0.0870 C   0  0  0  0  0  0  0  0  0  0  0  0
   -0.1316    1.0659    0.1023 C   0  0  0  0  0  0  0  0  0  0  0  0
   -0.2649   -0.3308    0.1232 C   0  0  0  0  0  0  0  0  0  0  0  0
    2.4065    3.7163    0.0520 N   0  0  0  0  0  0  0  0  0  0  0  0
    2.4698    5.0569   -0.0722 C   0  0  0  0  0  0  0  0  0  0  0  0
    1.4480    5.7162   -0.0748 O   0  0  0  0  0  0  0  0  0  0  0  0
    3.7775    5.7238   -0.2048 C   0  0  0  0  0  0  0  0  0  0  0  0
    4.9449    4.9649   -0.3251 C   0  0  0  0  0  0  0  0  0  0  0  0
    6.1639    5.5943   -0.4492 C   0  0  0  0  0  0  0  0  0  0  0  0
    6.2401    6.9783   -0.4560 C   0  0  0  0  0  0  0  0  0  0  0  0
    5.0970    7.7416   -0.3383 C   0  0  0  0  0  0  0  0  0  0  0  0
    3.8577    7.1251   -0.2170 C   0  0  0  0  0  0  0  0  0  0  0  0
    2.7049    7.8912   -0.1042 N   0  0  0  0  0  0  0  0  0  0  0  0
    2.8020    9.3489    0.0055 C   0  0  0  0  0  0  0  0  0  0  0  0
    1.3979    9.9466    0.1167 C   0  0  0  0  0  0  0  0  0  0  0  0
    0.6309    9.6989   -1.1859 C   0  0  0  0  0  0  0  0  0  0  0  0
   -0.7430   10.3680   -1.0951 C   0  0  0  0  0  0  0  0  0  0  0  0
   -0.5756   11.7642   -0.8405 O   0  0  0  0  0  0  0  0  0  0  0  0
    0.0935   12.0572    0.3877 C   0  0  0  0  0  0  0  0  0  0  0  0
    1.5011   11.4560    0.3565 C   0  0  0  0  0  0  0  0  0  0  0  0
   -1.6115   -1.9603    0.1542 H   0  0  0  0  0  0  0  0  0  0  0  0
   -3.6252   -0.5531    0.1440 H   0  0  0  0  0  0  0  0  0  0  0  0
   -3.4544    1.8767    0.1081 H   0  0  0  0  0  0  0  0  0  0  0  0
   -2.0142    3.9131    0.0713 H   0  0  0  0  0  0  0  0  0  0  0  0
    2.0336    1.1151    0.0910 H   0  0  0  0  0  0  0  0  0  0  0  0
    0.6120   -0.9612    0.1279 H   0  0  0  0  0  0  0  0  0  0  0  0
    3.2223    3.1975    0.1307 H   0  0  0  0  0  0  0  0  0  0  0  0
    4.8913    3.8863   -0.3210 H   0  0  0  0  0  0  0  0  0  0  0  0
    7.0650    5.0062   -0.5420 H   0  0  0  0  0  0  0  0  0  0  0  0
    7.2007    7.4622   -0.5538 H   0  0  0  0  0  0  0  0  0  0  0  0
    5.1651    8.8195   -0.3442 H   0  0  0  0  0  0  0  0  0  0  0  0
    1.8354    7.4612   -0.0980 H   0  0  0  0  0  0  0  0  0  0  0  0
    3.3788    9.6089    0.8930 H   0  0  0  0  0  0  0  0  0  0  0  0
    3.2975    9.7477   -0.8796 H   0  0  0  0  0  0  0  0  0  0  0  0
    0.8681    9.4808    0.9476 H   0  0  0  0  0  0  0  0  0  0  0  0
    1.1874   10.1218   -2.0223 H   0  0  0  0  0  0  0  0  0  0  0  0
    0.5047    8.6267   -1.3361 H   0  0  0  0  0  0  0  0  0  0  0  0
   -1.3143    9.9166   -0.2839 H   0  0  0  0  0  0  0  0  0  0  0  0
   -1.2767   10.2314   -2.0356 H   0  0  0  0  0  0  0  0  0  0  0  0
   -0.4668   11.6278    1.2183 H   0  0  0  0  0  0  0  0  0  0  0  0
    0.1624   13.1375    0.5156 H   0  0  0  0  0  0  0  0  0  0  0  0
    1.9972   11.6403    1.3094 H   0  0  0  0  0  0  0  0  0  0  0  0
    2.0751   11.9143   -0.4488 H   0  0  0  0  0  0  0  0  0  0  0  0
  1 10  2  0  0  0  0
  1  2  1  0  0  0  0
  1 28  1  0  0  0  0
  2  3  2  0  0  0  0
  2 29  1  0  0  0  0
  3  4  1  0  0  0  0
  3 30  1  0  0  0  0
  4  9  2  0  0  0  0
  4  5  1  0  0  0  0
  5  6  2  0  0  0  0
  5 31  1  0  0  0  0
  6  7  1  0  0  0  0
  7  8  2  0  0  0  0
  7 11  1  0  0  0  0
  8  9  1  0  0  0  0
  8 32  1  0  0  0  0
  9 10  1  0  0  0  0
 10 33  1  0  0  0  0
 11 12  1  0  0  0  0
 11 34  1  0  0  0  0
 12 13  2  0  0  0  0
 12 14  1  0  0  0  0
 14 19  2  0  0  0  0
 14 15  1  0  0  0  0
 15 16  2  0  0  0  0
 15 35  1  0  0  0  0
 16 17  1  0  0  0  0
 16 36  1  0  0  0  0
 17 18  2  0  0  0  0
 17 37  1  0  0  0  0
 18 19  1  0  0  0  0
 18 38  1  0  0  0  0
 19 20  1  0  0  0  0
 20 21  1  0  0  0  0
 20 39  1  0  0  0  0
 21 22  1  0  0  0  0
 21 40  1  0  0  0  0
 21 41  1  0  0  0  0
 22 27  1  0  0  0  0
 22 23  1  0  0  0  0
 22 42  1  0  0  0  0
 23 24  1  0  0  0  0
 23 43  1  0  0  0  0
 23 44  1  0  0  0  0
 24 25  1  0  0  0  0
 24 45  1  0  0  0  0
 24 46  1  0  0  0  0
 25 26  1  0  0  0  0
 26 27  1  0  0  0  0
 26 47  1  0  0  0  0
 26 48  1  0  0  0  0
 27 49  1  0  0  0  0
 27 50  1  0  0  0  0
M  END
$$$$
ZINC03832404
  -OEChem-08230709403D

 39 41  0     0  0  0  0  0  0999 V2000
   -3.9730    4.7323    8.4928 C   0  0  0  0  0  0  0  0  0  0  0  0
   -4.0550    3.9320    7.2185 C   0  0  0  0  0  0  0  0  0  0  0  0
   -3.0891    3.8523    6.4892 O   0  0  0  0  0  0  0  0  0  0  0  0
   -5.2017    3.3049    6.8892 N   0  0  0  0  0  0  0  0  0  0  0  0
   -5.2773    2.5671    5.7143 C   0  0  0  0  0  0  0  0  0  0  0  0
   -6.3660    1.8820    5.2530 C   0  0  0  0  0  0  0  0  0  0  0  0
   -6.0153    1.3068    4.0838 N   0  0  0  0  0  0  0  0  0  0  0  0
   -4.7682    1.6145    3.8221 C   0  0  0  0  0  0  0  0  0  0  0  0
   -4.2889    2.3864    4.8157 O   0  0  0  0  0  0  0  0  0  0  0  0
   -4.0094    1.1795    2.6326 C   0  0  0  0  0  0  0  0  0  0  0  0
   -2.6809    1.5745    2.4652 C   0  0  0  0  0  0  0  0  0  0  0  0
   -1.9757    1.1628    1.3483 C   0  0  0  0  0  0  0  0  0  0  0  0
   -2.5880    0.3631    0.3922 C   0  0  0  0  0  0  0  0  0  0  0  0
   -3.9009   -0.0364    0.5542 C   0  0  0  0  0  0  0  0  0  0  0  0
   -4.6189    0.3683    1.6674 C   0  0  0  0  0  0  0  0  0  0  0  0
   -5.9117   -0.0204    1.8223 O   0  0  0  0  0  0  0  0  0  0  0  0
   -0.6816    1.5467    1.1837 O   0  0  0  0  0  0  0  0  0  0  0  0
   -0.0127    1.0858    0.0080 C   0  0  0  0  0  0  0  0  0  0  0  0
   -7.6882    1.7876    5.9153 C   0  0  0  0  0  0  0  0  0  0  0  0
   -8.8618    1.7380    5.1558 C   0  0  0  0  0  0  0  0  0  0  0  0
  -10.0714    1.6502    5.8222 C   0  0  0  0  0  0  0  0  0  0  0  0
  -10.0813    1.6145    7.2051 C   0  0  0  0  0  0  0  0  0  0  0  0
   -8.9582    1.6624    7.8950 N   0  0  0  0  0  0  0  0  0  0  0  0
   -7.7827    1.7409    7.3056 C   0  0  0  0  0  0  0  0  0  0  0  0
   -4.9305    4.6881    9.0118 H   0  0  0  0  0  0  0  0  0  0  0  0
   -3.1936    4.3181    9.1324 H   0  0  0  0  0  0  0  0  0  0  0  0
   -3.7356    5.7694    8.2559 H   0  0  0  0  0  0  0  0  0  0  0  0
   -5.9741    3.3687    7.4724 H   0  0  0  0  0  0  0  0  0  0  0  0
   -2.2047    2.1997    3.2059 H   0  0  0  0  0  0  0  0  0  0  0  0
   -2.0342    0.0486   -0.4800 H   0  0  0  0  0  0  0  0  0  0  0  0
   -4.3697   -0.6616   -0.1913 H   0  0  0  0  0  0  0  0  0  0  0  0
   -6.5546    0.5872    1.4316 H   0  0  0  0  0  0  0  0  0  0  0  0
    0.0021   -0.0041    0.0020 H   0  0  0  0  0  0  0  0  0  0  0  0
    1.0099    1.4631    0.0003 H   0  0  0  0  0  0  0  0  0  0  0  0
   -0.5399    1.4469   -0.8751 H   0  0  0  0  0  0  0  0  0  0  0  0
   -8.8249    1.7679    4.0768 H   0  0  0  0  0  0  0  0  0  0  0  0
  -10.9978    1.6096    5.2686 H   0  0  0  0  0  0  0  0  0  0  0  0
  -11.0237    1.5460    7.7281 H   0  0  0  0  0  0  0  0  0  0  0  0
   -6.8846    1.7734    7.9045 H   0  0  0  0  0  0  0  0  0  0  0  0
  1  2  1  0  0  0  0
  1 25  1  0  0  0  0
  1 26  1  0  0  0  0
  1 27  1  0  0  0  0
  2  3  2  0  0  0  0
  2  4  1  0  0  0  0
  4  5  1  0  0  0  0
  4 28  1  0  0  0  0
  5  9  1  0  0  0  0
  5  6  2  0  0  0  0
  6  7  1  0  0  0  0
  6 19  1  0  0  0  0
  7  8  2  0  0  0  0
  8  9  1  0  0  0  0
  8 10  1  0  0  0  0
 10 15  2  0  0  0  0
 10 11  1  0  0  0  0
 11 12  2  0  0  0  0
 11 29  1  0  0  0  0
 12 13  1  0  0  0  0
 12 17  1  0  0  0  0
 13 14  2  0  0  0  0
 13 30  1  0  0  0  0
 14 15  1  0  0  0  0
 14 31  1  0  0  0  0
 15 16  1  0  0  0  0
 16 32  1  0  0  0  0
 17 18  1  0  0  0  0
 18 33  1  0  0  0  0
 18 34  1  0  0  0  0
 18 35  1  0  0  0  0
 19 24  2  0  0  0  0
 19 20  1  0  0  0  0
 20 21  2  0  0  0  0
 20 36  1  0  0  0  0
 21 22  1  0  0  0  0
 21 37  1  0  0  0  0
 22 23  2  0  0  0  0
 22 38  1  0  0  0  0
 23 24  1  0  0  0  0
 24 39  1  0  0  0  0
M  END
$$$$
ZINC03832405
  -OEChem-08230709403D

 64 68  0     0  0  0  0  0  0999 V2000
    7.6320   -0.4371   -0.8048 C   0  0  0  0  0  0  0  0  0  0  0  0
    6.2265    0.0847   -0.6525 C   0  0  0  0  0  0  0  0  0  0  0  0
    5.0979   -0.6689   -0.3482 C   0  0  0  0  0  0  0  0  0  0  0  0
    4.0193    0.1937   -0.3023 C   0  0  0  0  0  0  0  0  0  0  0  0
    4.4711    1.4609   -0.5679 N   0  0  0  0  0  0  0  0  0  0  0  0
    3.9255    2.2624   -0.5960 H   0  0  0  0  0  0  0  0  0  0  0  0
    5.8221    1.4048   -0.7895 C   0  0  0  0  0  0  0  0  0  0  0  0
    6.6602    2.5030   -1.0984 C   0  0  0  0  0  0  0  0  0  0  0  0
    6.7801    3.5491   -0.2102 C   0  0  0  0  0  0  0  0  0  0  0  0
    5.9687    4.7821   -0.1563 C   0  0  0  0  0  0  0  0  0  0  0  0
    4.8989    5.2680   -0.9173 C   0  0  0  0  0  0  0  0  0  0  0  0
    4.3648    6.5110   -0.5755 C   0  0  0  0  0  0  0  0  0  0  0  0
    4.9010    7.1990    0.4936 C   0  0  0  0  0  0  0  0  0  0  0  0
    5.9092    6.7151    1.1925 N   0  0  0  0  0  0  0  0  0  0  0  0
    6.4631    5.5401    0.9129 C   0  0  0  0  0  0  0  0  0  0  0  0
    7.5120    4.8563    1.5077 N   0  0  0  0  0  0  0  0  0  0  0  0
    7.7464    3.6832    0.8957 C   0  0  0  0  0  0  0  0  0  0  0  0
    8.6037    2.8747    1.2002 O   0  0  0  0  0  0  0  0  0  0  0  0
    4.3883    4.5376   -1.9840 N   0  0  0  0  0  0  0  0  0  0  0  0
    3.4263    5.1068   -2.8244 C   0  0  0  0  0  0  0  0  0  0  0  0
    2.3438    4.3502   -3.2551 C   0  0  0  0  0  0  0  0  0  0  0  0
    1.3944    4.9139   -4.0847 C   0  0  0  0  0  0  0  0  0  0  0  0
    1.5208    6.2325   -4.4880 C   0  0  0  0  0  0  0  0  0  0  0  0
    2.5998    6.9894   -4.0604 C   0  0  0  0  0  0  0  0  0  0  0  0
    3.5519    6.4291   -3.2296 C   0  0  0  0  0  0  0  0  0  0  0  0
    2.7596    8.6400   -4.5739 Cl  0  0  0  0  0  0  0  0  0  0  0  0
    0.5910    6.7816   -5.2999 F   0  0  0  0  0  0  0  0  0  0  0  0
    2.6278   -0.1815   -0.0120 C   0  0  0  0  0  0  0  0  0  0  0  0
    2.3587   -1.3265    0.2989 O   0  0  0  0  0  0  0  0  0  0  0  0
    1.6501    0.7429   -0.0904 N   0  0  0  0  0  0  0  0  0  0  0  0
    0.2494    0.3426    0.0644 C   0  0  0  0  0  0  0  0  0  0  0  0
   -0.6567    1.5491   -0.1891 C   0  0  0  0  0  0  0  0  0  0  0  0
   -2.5097    0.1212   -0.8173 C   0  0  0  0  0  0  0  0  0  0  0  0
   -3.9436   -0.2717   -0.4521 C   0  0  0  0  0  0  0  0  0  0  0  0
   -4.7791    0.8877   -0.5076 O   0  0  0  0  0  0  0  0  0  0  0  0
   -4.3618    1.9405    0.3659 C   0  0  0  0  0  0  0  0  0  0  0  0
   -2.9321    2.3558    0.0089 C   0  0  0  0  0  0  0  0  0  0  0  0
    8.1369   -0.4080    0.1608 H   0  0  0  0  0  0  0  0  0  0  0  0
    7.6008   -1.4645   -1.1677 H   0  0  0  0  0  0  0  0  0  0  0  0
    8.1749    0.1837   -1.5175 H   0  0  0  0  0  0  0  0  0  0  0  0
    5.0696   -1.7351   -0.1785 H   0  0  0  0  0  0  0  0  0  0  0  0
    7.2056    2.5208   -2.0304 H   0  0  0  0  0  0  0  0  0  0  0  0
    3.5419    6.9271   -1.1377 H   0  0  0  0  0  0  0  0  0  0  0  0
    4.4872    8.1597    0.7623 H   0  0  0  0  0  0  0  0  0  0  0  0
    8.0140    5.1837    2.2704 H   0  0  0  0  0  0  0  0  0  0  0  0
    4.6992    3.6331   -2.1454 H   0  0  0  0  0  0  0  0  0  0  0  0
    2.2444    3.3217   -2.9410 H   0  0  0  0  0  0  0  0  0  0  0  0
    0.5528    4.3257   -4.4195 H   0  0  0  0  0  0  0  0  0  0  0  0
    4.3931    7.0189   -2.8965 H   0  0  0  0  0  0  0  0  0  0  0  0
    1.8740    1.6733   -0.2492 H   0  0  0  0  0  0  0  0  0  0  0  0
    0.0152   -0.4446   -0.6522 H   0  0  0  0  0  0  0  0  0  0  0  0
    0.0870   -0.0275    1.0767 H   0  0  0  0  0  0  0  0  0  0  0  0
   -0.3591    2.3704    0.4629 H   0  0  0  0  0  0  0  0  0  0  0  0
   -0.5653    1.8599   -1.2298 H   0  0  0  0  0  0  0  0  0  0  0  0
   -2.4825    0.4852   -1.8444 H   0  0  0  0  0  0  0  0  0  0  0  0
   -1.8585   -0.7475   -0.7210 H   0  0  0  0  0  0  0  0  0  0  0  0
   -3.9620   -0.6856    0.5561 H   0  0  0  0  0  0  0  0  0  0  0  0
   -4.3081   -1.0171   -1.1589 H   0  0  0  0  0  0  0  0  0  0  0  0
   -4.3923    1.5908    1.3978 H   0  0  0  0  0  0  0  0  0  0  0  0
   -5.0284    2.7951    0.2513 H   0  0  0  0  0  0  0  0  0  0  0  0
   -2.5892    3.1182    0.7083 H   0  0  0  0  0  0  0  0  0  0  0  0
   -2.9116    2.7555   -1.0050 H   0  0  0  0  0  0  0  0  0  0  0  0
   -2.0536    1.1717    0.1167 N   0  3  0  0  0  0  0  0  0  0  0  0
   -2.0988    0.8084    1.0760 H   0  0  0  0  0  0  0  0  0  0  0  0
  1  2  1  0  0  0  0
  1 38  1  0  0  0  0
  1 39  1  0  0  0  0
  1 40  1  0  0  0  0
  2  7  2  0  0  0  0
  2  3  1  0  0  0  0
  3  4  2  0  0  0  0
  3 41  1  0  0  0  0
  4  5  1  0  0  0  0
  4 28  1  0  0  0  0
  5  6  1  0  0  0  0
  5  7  1  0  0  0  0
  7  8  1  0  0  0  0
  8  9  2  3  0  0  0
  8 42  1  0  0  0  0
  9 17  1  0  0  0  0
  9 10  1  0  0  0  0
 10 15  2  0  0  0  0
 10 11  1  0  0  0  0
 11 12  2  0  0  0  0
 11 19  1  0  0  0  0
 12 13  1  0  0  0  0
 12 43  1  0  0  0  0
 13 14  2  0  0  0  0
 13 44  1  0  0  0  0
 14 15  1  0  0  0  0
 15 16  1  0  0  0  0
 16 17  1  0  0  0  0
 16 45  1  0  0  0  0
 17 18  2  0  0  0  0
 19 20  1  0  0  0  0
 19 46  1  0  0  0  0
 20 25  2  0  0  0  0
 20 21  1  0  0  0  0
 21 22  2  0  0  0  0
 21 47  1  0  0  0  0
 22 23  1  0  0  0  0
 22 48  1  0  0  0  0
 23 24  2  0  0  0  0
 23 27  1  0  0  0  0
 24 25  1  0  0  0  0
 24 26  1  0  0  0  0
 25 49  1  0  0  0  0
 28 29  2  0  0  0  0
 28 30  1  0  0  0  0
 30 31  1  0  0  0  0
 30 50  1  0  0  0  0
 31 32  1  0  0  0  0
 31 51  1  0  0  0  0
 31 52  1  0  0  0  0
 32 53  1  0  0  0  0
 32 54  1  0  0  0  0
 32 63  1  0  0  0  0
 33 34  1  0  0  0  0
 33 55  1  0  0  0  0
 33 56  1  0  0  0  0
 33 63  1  0  0  0  0
 34 35  1  0  0  0  0
 34 57  1  0  0  0  0
 34 58  1  0  0  0  0
 35 36  1  0  0  0  0
 36 37  1  0  0  0  0
 36 59  1  0  0  0  0
 36 60  1  0  0  0  0
 37 61  1  0  0  0  0
 37 62  1  0  0  0  0
 37 63  1  0  0  0  0
 63 64  1  0  0  0  0
M  CHG  1  63   1
M  END
$$$$
ZINC03832406
  -OEChem-08230709403D

 49 55  0     1  0  0  0  0  0999 V2000
   -8.0155   -0.7353    0.0796 C   0  0  0  0  0  0  0  0  0  0  0  0
   -8.1965    0.6394    0.0890 C   0  0  0  0  0  0  0  0  0  0  0  0
   -7.1120    1.4896    0.0819 C   0  0  0  0  0  0  0  0  0  0  0  0
   -5.8204    0.9712    0.0660 C   0  0  0  0  0  0  0  0  0  0  0  0
   -5.6397   -0.4195    0.0569 C   0  0  0  0  0  0  0  0  0  0  0  0
   -6.7443   -1.2678    0.0633 C   0  0  0  0  0  0  0  0  0  0  0  0
   -4.1825   -0.6516    0.0408 C   0  0  0  0  0  0  0  0  0  0  0  0
   -3.4039   -1.8029    0.0275 C   0  0  0  0  0  0  0  0  0  0  0  0
   -2.0163   -1.7140    0.0121 C   0  0  0  0  0  0  0  0  0  0  0  0
   -1.4033   -0.4404    0.0136 C   0  0  0  0  0  0  0  0  0  0  0  0
    0.0021   -0.0041    0.0020 C   0  0  0  0  0  0  0  0  0  0  0  0
    1.2184   -0.6861   -0.0133 C   0  0  0  0  0  0  0  0  0  0  0  0
    2.3992    0.0229   -0.0208 C   0  0  0  0  0  0  0  0  0  0  0  0
    2.3820    1.4101   -0.0127 C   0  0  0  0  0  0  0  0  0  0  0  0
    1.1878    2.0970    0.0020 C   0  0  0  0  0  0  0  0  0  0  0  0
   -0.0170    1.3998    0.0097 C   0  0  0  0  0  0  0  0  0  0  0  0
   -1.3345    1.8144    0.0301 N   0  0  0  0  0  0  0  0  0  0  0  0
   -2.1813    0.7180    0.0275 C   0  0  0  0  0  0  0  0  0  0  0  0
   -3.5801    0.6154    0.0413 C   0  0  0  0  0  0  0  0  0  0  0  0
   -4.5748    1.5720    0.0564 N   0  0  0  0  0  0  0  0  0  0  0  0
   -4.4218    2.5298    0.0601 H   0  0  0  0  0  0  0  0  0  0  0  0
   -1.7732    3.2121    0.0443 C   0  0  2  0  0  0  0  0  0  0  0  0
   -2.8309    3.2787    0.2991 H   0  0  0  0  0  0  0  0  0  0  0  0
   -1.4943    3.8856   -1.3236 C   0  0  0  0  0  0  0  0  0  0  0  0
   -1.4030    5.3816   -0.9359 C   0  0  0  0  0  0  0  0  0  0  0  0
   -1.0962    5.3624    0.5741 C   0  0  1  0  0  0  0  0  0  0  0  0
   -1.9076    5.8375    1.1255 H   0  0  0  0  0  0  0  0  0  0  0  0
   -0.9779    3.9852    0.9687 O   0  0  0  0  0  0  0  0  0  0  0  0
    0.1313    6.0481    0.8293 O   0  0  0  0  0  0  0  0  0  0  0  0
   -1.4633   -3.0768   -0.0013 C   0  0  0  0  0  0  0  0  0  0  0  0
   -0.2770   -3.3445   -0.0139 O   0  0  0  0  0  0  0  0  0  0  0  0
   -2.4545   -3.9844    0.0027 N   0  0  0  0  0  0  0  0  0  0  0  0
   -3.7385   -3.2743    0.0233 C   0  0  0  0  0  0  0  0  0  0  0  0
   -8.8735   -1.3911    0.0853 H   0  0  0  0  0  0  0  0  0  0  0  0
   -9.1964    1.0474    0.1018 H   0  0  0  0  0  0  0  0  0  0  0  0
   -7.2644    2.5588    0.0890 H   0  0  0  0  0  0  0  0  0  0  0  0
   -6.6052   -2.3388    0.0560 H   0  0  0  0  0  0  0  0  0  0  0  0
    1.2344   -1.7660   -0.0196 H   0  0  0  0  0  0  0  0  0  0  0  0
    3.3423   -0.5031   -0.0326 H   0  0  0  0  0  0  0  0  0  0  0  0
    3.3135    1.9566   -0.0187 H   0  0  0  0  0  0  0  0  0  0  0  0
    1.1865    3.1770    0.0074 H   0  0  0  0  0  0  0  0  0  0  0  0
   -0.5523    3.5348   -1.7451 H   0  0  0  0  0  0  0  0  0  0  0  0
   -2.3174    3.7130   -2.0171 H   0  0  0  0  0  0  0  0  0  0  0  0
   -2.3516    5.8836   -1.1261 H   0  0  0  0  0  0  0  0  0  0  0  0
   -0.5971    5.8710   -1.4828 H   0  0  0  0  0  0  0  0  0  0  0  0
    0.3873    6.0624    1.7617 H   0  0  0  0  0  0  0  0  0  0  0  0
   -2.3402   -4.9476   -0.0039 H   0  0  0  0  0  0  0  0  0  0  0  0
   -4.2993   -3.5338    0.9212 H   0  0  0  0  0  0  0  0  0  0  0  0
   -4.3167   -3.5248   -0.8661 H   0  0  0  0  0  0  0  0  0  0  0  0
  1  6  2  0  0  0  0
  1  2  1  0  0  0  0
  1 34  1  0  0  0  0
  2  3  2  0  0  0  0
  2 35  1  0  0  0  0
  3  4  1  0  0  0  0
  3 36  1  0  0  0  0
  4 20  1  0  0  0  0
  4  5  2  0  0  0  0
  5  6  1  0  0  0  0
  5  7  1  0  0  0  0
  6 37  1  0  0  0  0
  7 19  2  0  0  0  0
  7  8  1  0  0  0  0
  8 33  1  0  0  0  0
  8  9  2  0  0  0  0
  9 10  1  0  0  0  0
  9 30  1  0  0  0  0
 10 18  2  0  0  0  0
 10 11  1  0  0  0  0
 11 16  2  0  0  0  0
 11 12  1  0  0  0  0
 12 13  2  0  0  0  0
 12 38  1  0  0  0  0
 13 14  1  0  0  0  0
 13 39  1  0  0  0  0
 14 15  2  0  0  0  0
 14 40  1  0  0  0  0
 15 16  1  0  0  0  0
 15 41  1  0  0  0  0
 16 17  1  0  0  0  0
 17 18  1  0  0  0  0
 17 22  1  0  0  0  0
 18 19  1  0  0  0  0
 19 20  1  0  0  0  0
 20 21  1  0  0  0  0
 22 23  1  0  0  0  0
 22 28  1  0  0  0  0
 22 24  1  0  0  0  0
 24 25  1  0  0  0  0
 24 42  1  0  0  0  0
 24 43  1  0  0  0  0
 25 26  1  0  0  0  0
 25 44  1  0  0  0  0
 25 45  1  0  0  0  0
 26 27  1  0  0  0  0
 26 28  1  0  0  0  0
 26 29  1  0  0  0  0
 29 46  1  0  0  0  0
 30 31  2  0  0  0  0
 30 32  1  0  0  0  0
 32 33  1  0  0  0  0
 32 47  1  0  0  0  0
 33 48  1  0  0  0  0
 33 49  1  0  0  0  0
M  END
$$$$
ZINC03832407
  -OEChem-08230709403D

 57 60  0     0  0  0  0  0  0999 V2000
    9.3458    5.5915   -1.3015 C   0  0  0  0  0  0  0  0  0  0  0  0
    8.3163    6.3660   -0.4763 C   0  0  0  0  0  0  0  0  0  0  0  0
    8.0008    7.6929   -1.1697 C   0  0  0  0  0  0  0  0  0  0  0  0
    8.8829    6.6413    0.9179 C   0  0  0  0  0  0  0  0  0  0  0  0
    7.0547    5.5508   -0.3539 C   0  0  0  0  0  0  0  0  0  0  0  0
    7.0940    4.3044    0.2439 C   0  0  0  0  0  0  0  0  0  0  0  0
    5.9398    3.5548    0.3577 C   0  0  0  0  0  0  0  0  0  0  0  0
    4.7382    4.0543   -0.1286 C   0  0  0  0  0  0  0  0  0  0  0  0
    4.7032    5.3047   -0.7328 C   0  0  0  0  0  0  0  0  0  0  0  0
    5.8602    6.0511   -0.8391 C   0  0  0  0  0  0  0  0  0  0  0  0
    3.5684    3.2981   -0.0155 N   0  0  0  0  0  0  0  0  0  0  0  0
    2.3498    3.9307    0.1669 C   0  0  0  0  0  0  0  0  0  0  0  0
    1.1529    3.1796    0.1640 C   0  0  0  0  0  0  0  0  0  0  0  0
    1.1469    1.7910   -0.0195 C   0  0  0  0  0  0  0  0  0  0  0  0
   -0.0381    1.1174   -0.0135 C   0  0  0  0  0  0  0  0  0  0  0  0
   -1.2450    1.7890    0.1666 C   0  0  0  0  0  0  0  0  0  0  0  0
   -1.2754    3.1386    0.3537 C   0  0  0  0  0  0  0  0  0  0  0  0
   -0.0749    3.8622    0.3532 C   0  0  0  0  0  0  0  0  0  0  0  0
   -0.0409    5.2590    0.5347 C   0  0  0  0  0  0  0  0  0  0  0  0
    1.1624    5.8937    0.5221 C   0  0  0  0  0  0  0  0  0  0  0  0
    2.3013    5.2374    0.3435 N   0  0  0  0  0  0  0  0  0  0  0  0
   -1.3155    6.0364    0.7402 C   0  0  0  0  0  0  0  0  0  0  0  0
   -1.6932    6.0052    2.1988 C   0  0  0  0  0  0  0  0  0  0  0  0
   -1.2358    6.9831    3.0716 C   0  0  0  0  0  0  0  0  0  0  0  0
   -1.6005    6.9252    4.4018 C   0  0  0  0  0  0  0  0  0  0  0  0
   -2.3752    5.9550    4.8491 N   0  0  0  0  0  0  0  0  0  0  0  0
   -2.8306    5.0058    4.0488 C   0  0  0  0  0  0  0  0  0  0  0  0
   -2.5085    5.0045    2.6974 C   0  0  0  0  0  0  0  0  0  0  0  0
   -3.6250    4.0273    4.5511 O   0  0  0  0  0  0  0  0  0  0  0  0
   -3.9250    4.0878    5.9469 C   0  0  0  0  0  0  0  0  0  0  0  0
    8.9421    5.3954   -2.2948 H   0  0  0  0  0  0  0  0  0  0  0  0
   10.2583    6.1811   -1.3901 H   0  0  0  0  0  0  0  0  0  0  0  0
    9.5706    4.6462   -0.8075 H   0  0  0  0  0  0  0  0  0  0  0  0
    7.2673    8.2447   -0.5818 H   0  0  0  0  0  0  0  0  0  0  0  0
    8.9133    8.2825   -1.2583 H   0  0  0  0  0  0  0  0  0  0  0  0
    7.5971    7.4968   -2.1630 H   0  0  0  0  0  0  0  0  0  0  0  0
    9.1077    5.6960    1.4119 H   0  0  0  0  0  0  0  0  0  0  0  0
    9.7954    7.2309    0.8294 H   0  0  0  0  0  0  0  0  0  0  0  0
    8.1494    7.1931    1.5058 H   0  0  0  0  0  0  0  0  0  0  0  0
    8.0285    3.9167    0.6218 H   0  0  0  0  0  0  0  0  0  0  0  0
    5.9712    2.5814    0.8247 H   0  0  0  0  0  0  0  0  0  0  0  0
    3.7715    5.6940   -1.1160 H   0  0  0  0  0  0  0  0  0  0  0  0
    5.8329    7.0250   -1.3050 H   0  0  0  0  0  0  0  0  0  0  0  0
    3.6098    2.3302   -0.0646 H   0  0  0  0  0  0  0  0  0  0  0  0
    2.0748    1.2576   -0.1643 H   0  0  0  0  0  0  0  0  0  0  0  0
   -0.0417    0.0468   -0.1551 H   0  0  0  0  0  0  0  0  0  0  0  0
   -2.1699    1.2314    0.1625 H   0  0  0  0  0  0  0  0  0  0  0  0
   -2.2173    3.6471    0.4971 H   0  0  0  0  0  0  0  0  0  0  0  0
    1.1912    6.9643    0.6613 H   0  0  0  0  0  0  0  0  0  0  0  0
   -1.1658    7.0692    0.4256 H   0  0  0  0  0  0  0  0  0  0  0  0
   -2.1137    5.5883    0.1485 H   0  0  0  0  0  0  0  0  0  0  0  0
   -0.6018    7.7808    2.7138 H   0  0  0  0  0  0  0  0  0  0  0  0
   -1.2471    7.6832    5.0850 H   0  0  0  0  0  0  0  0  0  0  0  0
   -2.8858    4.2305    2.0456 H   0  0  0  0  0  0  0  0  0  0  0  0
   -2.9993    4.0367    6.5201 H   0  0  0  0  0  0  0  0  0  0  0  0
   -4.4380    5.0238    6.1680 H   0  0  0  0  0  0  0  0  0  0  0  0
   -4.5666    3.2492    6.2174 H   0  0  0  0  0  0  0  0  0  0  0  0
  1  2  1  0  0  0  0
  1 31  1  0  0  0  0
  1 32  1  0  0  0  0
  1 33  1  0  0  0  0
  2  3  1  0  0  0  0
  2  4  1  0  0  0  0
  2  5  1  0  0  0  0
  3 34  1  0  0  0  0
  3 35  1  0  0  0  0
  3 36  1  0  0  0  0
  4 37  1  0  0  0  0
  4 38  1  0  0  0  0
  4 39  1  0  0  0  0
  5 10  2  0  0  0  0
  5  6  1  0  0  0  0
  6  7  2  0  0  0  0
  6 40  1  0  0  0  0
  7  8  1  0  0  0  0
  7 41  1  0  0  0  0
  8  9  2  0  0  0  0
  8 11  1  0  0  0  0
  9 10  1  0  0  0  0
  9 42  1  0  0  0  0
 10 43  1  0  0  0  0
 11 12  1  0  0  0  0
 11 44  1  0  0  0  0
 12 21  2  0  0  0  0
 12 13  1  0  0  0  0
 13 18  2  0  0  0  0
 13 14  1  0  0  0  0
 14 15  2  0  0  0  0
 14 45  1  0  0  0  0
 15 16  1  0  0  0  0
 15 46  1  0  0  0  0
 16 17  2  0  0  0  0
 16 47  1  0  0  0  0
 17 18  1  0  0  0  0
 17 48  1  0  0  0  0
 18 19  1  0  0  0  0
 19 20  2  0  0  0  0
 19 22  1  0  0  0  0
 20 21  1  0  0  0  0
 20 49  1  0  0  0  0
 22 23  1  0  0  0  0
 22 50  1  0  0  0  0
 22 51  1  0  0  0  0
 23 28  2  0  0  0  0
 23 24  1  0  0  0  0
 24 25  2  0  0  0  0
 24 52  1  0  0  0  0
 25 26  1  0  0  0  0
 25 53  1  0  0  0  0
 26 27  2  0  0  0  0
 27 28  1  0  0  0  0
 27 29  1  0  0  0  0
 28 54  1  0  0  0  0
 29 30  1  0  0  0  0
 30 55  1  0  0  0  0
 30 56  1  0  0  0  0
 30 57  1  0  0  0  0
M  END
$$$$
ZINC03832408
  -OEChem-08230709403D

 40 42  0     0  0  0  0  0  0999 V2000
    4.4650    2.3257   -1.2729 C   0  0  0  0  0  0  0  0  0  0  0  0
    3.7891    3.4372   -2.0337 C   0  0  0  0  0  0  0  0  0  0  0  0
    4.1676    3.7470   -3.3306 C   0  0  0  0  0  0  0  0  0  0  0  0
    3.5027    4.7910   -3.9728 C   0  0  0  0  0  0  0  0  0  0  0  0
    2.5398    5.4445   -3.3387 N   0  0  0  0  0  0  0  0  0  0  0  0
    2.1912    5.1488   -2.1393 N   0  0  0  0  0  0  0  0  0  0  0  0
    2.7659    4.1773   -1.4583 C   0  0  0  0  0  0  0  0  0  0  0  0
    2.3159    3.8745   -0.0523 C   0  0  0  0  0  0  0  0  0  0  0  0
    1.2082    2.8533   -0.0883 C   0  0  0  0  0  0  0  0  0  0  0  0
    1.4914    1.4970   -0.0362 C   0  0  0  0  0  0  0  0  0  0  0  0
    0.4495    0.5897   -0.0719 C   0  0  0  0  0  0  0  0  0  0  0  0
   -0.8004    1.0009   -0.1596 N   0  0  0  0  0  0  0  0  0  0  0  0
   -1.1070    2.2826   -0.2060 C   0  0  0  0  0  0  0  0  0  0  0  0
   -0.1182    3.2477   -0.1748 C   0  0  0  0  0  0  0  0  0  0  0  0
    3.8483    5.1446   -5.2733 N   0  0  0  0  0  0  0  0  0  0  0  0
    3.2647    6.2655   -5.8714 C   0  0  0  0  0  0  0  0  0  0  0  0
    2.9647    6.2535   -7.2276 C   0  0  0  0  0  0  0  0  0  0  0  0
    2.3839    7.3604   -7.8148 C   0  0  0  0  0  0  0  0  0  0  0  0
    2.1105    8.4846   -7.0556 C   0  0  0  0  0  0  0  0  0  0  0  0
    2.4131    8.5013   -5.7053 C   0  0  0  0  0  0  0  0  0  0  0  0
    2.9892    7.3953   -5.1118 C   0  0  0  0  0  0  0  0  0  0  0  0
    1.3859    9.8764   -7.7983 Cl  0  0  0  0  0  0  0  0  0  0  0  0
    5.2668    2.9830   -4.0229 C   0  0  0  0  0  0  0  0  0  0  0  0
    3.9386    1.3886   -1.4545 H   0  0  0  0  0  0  0  0  0  0  0  0
    5.4983    2.2327   -1.6071 H   0  0  0  0  0  0  0  0  0  0  0  0
    4.4469    2.5518   -0.2068 H   0  0  0  0  0  0  0  0  0  0  0  0
    1.9523    4.7884    0.4176 H   0  0  0  0  0  0  0  0  0  0  0  0
    3.1550    3.4803    0.5209 H   0  0  0  0  0  0  0  0  0  0  0  0
    2.5132    1.1539    0.0312 H   0  0  0  0  0  0  0  0  0  0  0  0
    0.6617   -0.4685   -0.0321 H   0  0  0  0  0  0  0  0  0  0  0  0
   -2.1426    2.5816   -0.2733 H   0  0  0  0  0  0  0  0  0  0  0  0
   -0.3754    4.2957   -0.2176 H   0  0  0  0  0  0  0  0  0  0  0  0
    4.4940    4.6134   -5.7650 H   0  0  0  0  0  0  0  0  0  0  0  0
    3.1820    5.3780   -7.8215 H   0  0  0  0  0  0  0  0  0  0  0  0
    2.1466    7.3501   -8.8684 H   0  0  0  0  0  0  0  0  0  0  0  0
    2.1984    9.3798   -5.1151 H   0  0  0  0  0  0  0  0  0  0  0  0
    3.2249    7.4087   -4.0579 H   0  0  0  0  0  0  0  0  0  0  0  0
    6.2244    3.4645   -3.8247 H   0  0  0  0  0  0  0  0  0  0  0  0
    5.2900    1.9598   -3.6478 H   0  0  0  0  0  0  0  0  0  0  0  0
    5.0809    2.9721   -5.0969 H   0  0  0  0  0  0  0  0  0  0  0  0
  1  2  1  0  0  0  0
  1 24  1  0  0  0  0
  1 25  1  0  0  0  0
  1 26  1  0  0  0  0
  2  7  2  0  0  0  0
  2  3  1  0  0  0  0
  3  4  2  0  0  0  0
  3 23  1  0  0  0  0
  4  5  1  0  0  0  0
  4 15  1  0  0  0  0
  5  6  2  0  0  0  0
  6  7  1  0  0  0  0
  7  8  1  0  0  0  0
  8  9  1  0  0  0  0
  8 27  1  0  0  0  0
  8 28  1  0  0  0  0
  9 14  2  0  0  0  0
  9 10  1  0  0  0  0
 10 11  2  0  0  0  0
 10 29  1  0  0  0  0
 11 12  1  0  0  0  0
 11 30  1  0  0  0  0
 12 13  2  0  0  0  0
 13 14  1  0  0  0  0
 13 31  1  0  0  0  0
 14 32  1  0  0  0  0
 15 16  1  0  0  0  0
 15 33  1  0  0  0  0
 16 21  2  0  0  0  0
 16 17  1  0  0  0  0
 17 18  2  0  0  0  0
 17 34  1  0  0  0  0
 18 19  1  0  0  0  0
 18 35  1  0  0  0  0
 19 20  2  0  0  0  0
 19 22  1  0  0  0  0
 20 21  1  0  0  0  0
 20 36  1  0  0  0  0
 21 37  1  0  0  0  0
 23 38  1  0  0  0  0
 23 39  1  0  0  0  0
 23 40  1  0  0  0  0
M  END
$$$$
ZINC03832409
  -OEChem-08230709403D

 60 64  0     0  0  0  0  0  0999 V2000
   -4.3905   15.9603    6.6715 C   0  0  0  0  0  0  0  0  0  0  0  0
   -2.3744   14.7097    6.1856 C   0  0  0  0  0  0  0  0  0  0  0  0
   -1.4751   14.2086    5.0531 C   0  0  0  0  0  0  0  0  0  0  0  0
   -3.4087   13.9933    3.6130 C   0  0  0  0  0  0  0  0  0  0  0  0
   -4.3079   14.4945    4.7455 C   0  0  0  0  0  0  0  0  0  0  0  0
   -1.3925   12.7428    3.1271 C   0  0  0  0  0  0  0  0  0  0  0  0
   -2.1498   11.6281    2.4025 C   0  0  0  0  0  0  0  0  0  0  0  0
   -1.2642   11.0424    1.3010 C   0  0  0  0  0  0  0  0  0  0  0  0
   -1.9893    9.9751    0.6072 N   0  0  0  0  0  0  0  0  0  0  0  0
   -1.8979    8.6461    0.9059 C   0  0  0  0  0  0  0  0  0  0  0  0
   -2.6945    7.9334    0.0728 C   0  0  0  0  0  0  0  0  0  0  0  0
   -3.3483    8.9037   -0.8198 C   0  0  0  0  0  0  0  0  0  0  0  0
   -2.8673   10.1678   -0.4374 C   0  0  0  0  0  0  0  0  0  0  0  0
   -3.3130   11.3002   -1.1113 C   0  0  0  0  0  0  0  0  0  0  0  0
   -4.2184   11.1747   -2.1421 C   0  0  0  0  0  0  0  0  0  0  0  0
   -4.6928    9.9262   -2.5190 C   0  0  0  0  0  0  0  0  0  0  0  0
   -4.2638    8.7926   -1.8651 C   0  0  0  0  0  0  0  0  0  0  0  0
   -2.8768    6.4621    0.0662 C   0  0  0  0  0  0  0  0  0  0  0  0
   -1.7698    5.6112    0.0555 C   0  0  0  0  0  0  0  0  0  0  0  0
   -1.9965    4.2346    0.0444 C   0  0  0  0  0  0  0  0  0  0  0  0
   -3.3093    3.7646    0.0549 C   0  0  0  0  0  0  0  0  0  0  0  0
   -4.3269    4.6012    0.0696 N   0  0  0  0  0  0  0  0  0  0  0  0
   -4.1565    5.9078    0.0754 C   0  0  0  0  0  0  0  0  0  0  0  0
   -0.8570    3.2843    0.0279 C   0  0  0  0  0  0  0  0  0  0  0  0
   -1.0765    1.9102    0.0166 C   0  0  0  0  0  0  0  0  0  0  0  0
   -0.0126    1.0758    0.0080 C   0  0  0  0  0  0  0  0  0  0  0  0
    1.3613    2.2149    0.0010 S   0  0  0  0  0  0  0  0  0  0  0  0
    0.4320    3.7387    0.0180 C   0  0  0  0  0  0  0  0  0  0  0  0
   -3.8150   16.6763    7.2582 H   0  0  0  0  0  0  0  0  0  0  0  0
   -5.2458   16.4638    6.2209 H   0  0  0  0  0  0  0  0  0  0  0  0
   -4.7418   15.1579    7.3204 H   0  0  0  0  0  0  0  0  0  0  0  0
   -2.7096   13.8635    6.7853 H   0  0  0  0  0  0  0  0  0  0  0  0
   -1.8152   15.4024    6.8146 H   0  0  0  0  0  0  0  0  0  0  0  0
   -0.6245   13.6726    5.4742 H   0  0  0  0  0  0  0  0  0  0  0  0
   -1.1176   15.0570    4.4696 H   0  0  0  0  0  0  0  0  0  0  0  0
   -3.0734   14.8395    3.0133 H   0  0  0  0  0  0  0  0  0  0  0  0
   -3.9677   13.3004    2.9843 H   0  0  0  0  0  0  0  0  0  0  0  0
   -4.6651   13.6458    5.3289 H   0  0  0  0  0  0  0  0  0  0  0  0
   -5.1585   15.0305    4.3244 H   0  0  0  0  0  0  0  0  0  0  0  0
   -0.4833   12.3360    3.5697 H   0  0  0  0  0  0  0  0  0  0  0  0
   -1.1313   13.5263    2.4158 H   0  0  0  0  0  0  0  0  0  0  0  0
   -3.0590   12.0349    1.9599 H   0  0  0  0  0  0  0  0  0  0  0  0
   -2.4110   10.8445    3.1138 H   0  0  0  0  0  0  0  0  0  0  0  0
   -0.3549   10.6357    1.7436 H   0  0  0  0  0  0  0  0  0  0  0  0
   -1.0029   11.8260    0.5897 H   0  0  0  0  0  0  0  0  0  0  0  0
   -1.2815    8.2258    1.6867 H   0  0  0  0  0  0  0  0  0  0  0  0
   -2.9503   12.2767   -0.8262 H   0  0  0  0  0  0  0  0  0  0  0  0
   -4.5620   12.0566   -2.6623 H   0  0  0  0  0  0  0  0  0  0  0  0
   -5.4023    9.8431   -3.3290 H   0  0  0  0  0  0  0  0  0  0  0  0
   -4.6352    7.8224   -2.1605 H   0  0  0  0  0  0  0  0  0  0  0  0
   -0.7653    6.0078    0.0519 H   0  0  0  0  0  0  0  0  0  0  0  0
   -3.4944    2.7005    0.0506 H   0  0  0  0  0  0  0  0  0  0  0  0
   -5.0189    6.5578    0.0872 H   0  0  0  0  0  0  0  0  0  0  0  0
   -2.0820    1.5159    0.0183 H   0  0  0  0  0  0  0  0  0  0  0  0
    0.0021   -0.0041    0.0020 H   0  0  0  0  0  0  0  0  0  0  0  0
    0.7942    4.7562    0.0200 H   0  0  0  0  0  0  0  0  0  0  0  0
   -3.5304   15.4186    5.5978 N   0  3  0  0  0  0  0  0  0  0  0  0
   -3.1873   16.1958    5.0212 H   0  0  0  0  0  0  0  0  0  0  0  0
   -2.2524   13.2845    4.2010 N   0  3  0  0  0  0  0  0  0  0  0  0
   -2.5953   12.5073    4.7777 H   0  0  0  0  0  0  0  0  0  0  0  0
  1 29  1  0  0  0  0
  1 30  1  0  0  0  0
  1 31  1  0  0  0  0
  1 57  1  0  0  0  0
  2  3  1  0  0  0  0
  2 32  1  0  0  0  0
  2 33  1  0  0  0  0
  2 57  1  0  0  0  0
  3 34  1  0  0  0  0
  3 35  1  0  0  0  0
  3 59  1  0  0  0  0
  4  5  1  0  0  0  0
  4 36  1  0  0  0  0
  4 37  1  0  0  0  0
  4 59  1  0  0  0  0
  5 38  1  0  0  0  0
  5 39  1  0  0  0  0
  5 57  1  0  0  0  0
  6  7  1  0  0  0  0
  6 40  1  0  0  0  0
  6 41  1  0  0  0  0
  6 59  1  0  0  0  0
  7  8  1  0  0  0  0
  7 42  1  0  0  0  0
  7 43  1  0  0  0  0
  8  9  1  0  0  0  0
  8 44  1  0  0  0  0
  8 45  1  0  0  0  0
  9 13  1  0  0  0  0
  9 10  1  0  0  0  0
 10 11  2  0  0  0  0
 10 46  1  0  0  0  0
 11 12  1  0  0  0  0
 11 18  1  0  0  0  0
 12 17  2  0  0  0  0
 12 13  1  0  0  0  0
 13 14  2  0  0  0  0
 14 15  1  0  0  0  0
 14 47  1  0  0  0  0
 15 16  2  0  0  0  0
 15 48  1  0  0  0  0
 16 17  1  0  0  0  0
 16 49  1  0  0  0  0
 17 50  1  0  0  0  0
 18 23  2  0  0  0  0
 18 19  1  0  0  0  0
 19 20  2  0  0  0  0
 19 51  1  0  0  0  0
 20 21  1  0  0  0  0
 20 24  1  0  0  0  0
 21 22  2  0  0  0  0
 21 52  1  0  0  0  0
 22 23  1  0  0  0  0
 23 53  1  0  0  0  0
 24 28  2  0  0  0  0
 24 25  1  0  0  0  0
 25 26  2  0  0  0  0
 25 54  1  0  0  0  0
 26 27  1  0  0  0  0
 26 55  1  0  0  0  0
 27 28  1  0  0  0  0
 28 56  1  0  0  0  0
 57 58  1  0  0  0  0
 59 60  1  0  0  0  0
M  CHG  2  57   1  59   1
M  END
$$$$
ZINC03832410
  -OEChem-08230709403D

 51 55  0     0  0  0  0  0  0999 V2000
    7.5089   -6.3271   -3.0905 C   0  0  0  0  0  0  0  0  0  0  0  0
    6.2950   -6.9642   -3.2699 C   0  0  0  0  0  0  0  0  0  0  0  0
    5.3505   -6.9554   -2.2606 C   0  0  0  0  0  0  0  0  0  0  0  0
    5.6158   -6.2991   -1.0690 C   0  0  0  0  0  0  0  0  0  0  0  0
    6.8381   -5.6582   -0.8885 C   0  0  0  0  0  0  0  0  0  0  0  0
    7.7820   -5.6747   -1.9027 C   0  0  0  0  0  0  0  0  0  0  0  0
    7.1054   -5.0176    0.2809 O   0  0  0  0  0  0  0  0  0  0  0  0
    4.6865   -6.2862   -0.0766 O   0  0  0  0  0  0  0  0  0  0  0  0
    3.8405   -5.2249   -0.0086 C   0  0  0  0  0  0  0  0  0  0  0  0
    2.9495   -5.1160    1.0506 C   0  0  0  0  0  0  0  0  0  0  0  0
    2.0893   -4.0403    1.1223 C   0  0  0  0  0  0  0  0  0  0  0  0
    2.1152   -3.0616    0.1296 C   0  0  0  0  0  0  0  0  0  0  0  0
    3.0071   -3.1768   -0.9358 C   0  0  0  0  0  0  0  0  0  0  0  0
    3.8687   -4.2519   -0.9987 C   0  0  0  0  0  0  0  0  0  0  0  0
    1.1918   -1.9038    0.2036 C   0  0  0  0  0  0  0  0  0  0  0  0
   -0.1482   -1.9468    0.4044 C   0  0  0  0  0  0  0  0  0  0  0  0
   -0.6532   -0.6745    0.4103 N   0  0  0  0  0  0  0  0  0  0  0  0
    0.3501    0.2351    0.2123 C   0  0  0  0  0  0  0  0  0  0  0  0
    1.5492   -0.4856    0.0737 C   0  0  0  0  0  0  0  0  0  0  0  0
    2.7395    0.2217   -0.1410 C   0  0  0  0  0  0  0  0  0  0  0  0
    2.6827    1.5493   -0.2046 N   0  0  0  0  0  0  0  0  0  0  0  0
    1.5348    2.1880   -0.0691 C   0  0  0  0  0  0  0  0  0  0  0  0
    0.3943    1.5645    0.1336 N   0  0  0  0  0  0  0  0  0  0  0  0
    3.9440   -0.4439   -0.2829 N   0  0  0  0  0  0  0  0  0  0  0  0
   -2.0655   -0.3351    0.6011 C   0  0  0  0  0  0  0  0  0  0  0  0
   -2.5711   -0.9107    1.9401 C   0  0  0  0  0  0  0  0  0  0  0  0
   -4.0221   -1.3599    1.6368 C   0  0  0  0  0  0  0  0  0  0  0  0
   -3.9107   -1.9284    0.2003 C   0  0  0  0  0  0  0  0  0  0  0  0
   -2.9173   -0.9822   -0.5051 C   0  0  0  0  0  0  0  0  0  0  0  0
    8.2457   -6.3395   -3.8801 H   0  0  0  0  0  0  0  0  0  0  0  0
    6.0857   -7.4731   -4.1992 H   0  0  0  0  0  0  0  0  0  0  0  0
    4.4046   -7.4571   -2.4018 H   0  0  0  0  0  0  0  0  0  0  0  0
    8.7311   -5.1781   -1.7652 H   0  0  0  0  0  0  0  0  0  0  0  0
    7.5246   -5.5771    0.9490 H   0  0  0  0  0  0  0  0  0  0  0  0
    2.9302   -5.8743    1.8194 H   0  0  0  0  0  0  0  0  0  0  0  0
    1.3962   -3.9564    1.9463 H   0  0  0  0  0  0  0  0  0  0  0  0
    3.0262   -2.4228   -1.7088 H   0  0  0  0  0  0  0  0  0  0  0  0
    4.5629   -4.3394   -1.8213 H   0  0  0  0  0  0  0  0  0  0  0  0
   -0.7287   -2.8475    0.5390 H   0  0  0  0  0  0  0  0  0  0  0  0
    1.5321    3.2665   -0.1276 H   0  0  0  0  0  0  0  0  0  0  0  0
    3.9716   -1.4123   -0.2341 H   0  0  0  0  0  0  0  0  0  0  0  0
    4.7608    0.0577   -0.4311 H   0  0  0  0  0  0  0  0  0  0  0  0
   -2.1944    0.7472    0.5867 H   0  0  0  0  0  0  0  0  0  0  0  0
   -1.9632   -1.7634    2.2426 H   0  0  0  0  0  0  0  0  0  0  0  0
   -2.5633   -0.1421    2.7129 H   0  0  0  0  0  0  0  0  0  0  0  0
   -4.7033   -0.5094    1.6639 H   0  0  0  0  0  0  0  0  0  0  0  0
   -4.3408   -2.1339    2.3349 H   0  0  0  0  0  0  0  0  0  0  0  0
   -4.8805   -1.9025   -0.2965 H   0  0  0  0  0  0  0  0  0  0  0  0
   -3.5191   -2.9454    0.2218 H   0  0  0  0  0  0  0  0  0  0  0  0
   -3.4601   -0.2140   -1.0558 H   0  0  0  0  0  0  0  0  0  0  0  0
   -2.2797   -1.5480   -1.1844 H   0  0  0  0  0  0  0  0  0  0  0  0
  1  6  2  0  0  0  0
  1  2  1  0  0  0  0
  1 30  1  0  0  0  0
  2  3  2  0  0  0  0
  2 31  1  0  0  0  0
  3  4  1  0  0  0  0
  3 32  1  0  0  0  0
  4  5  2  0  0  0  0
  4  8  1  0  0  0  0
  5  6  1  0  0  0  0
  5  7  1  0  0  0  0
  6 33  1  0  0  0  0
  7 34  1  0  0  0  0
  8  9  1  0  0  0  0
  9 14  2  0  0  0  0
  9 10  1  0  0  0  0
 10 11  2  0  0  0  0
 10 35  1  0  0  0  0
 11 12  1  0  0  0  0
 11 36  1  0  0  0  0
 12 13  2  0  0  0  0
 12 15  1  0  0  0  0
 13 14  1  0  0  0  0
 13 37  1  0  0  0  0
 14 38  1  0  0  0  0
 15 19  1  0  0  0  0
 15 16  2  0  0  0  0
 16 17  1  0  0  0  0
 16 39  1  0  0  0  0
 17 18  1  0  0  0  0
 17 25  1  0  0  0  0
 18 23  2  0  0  0  0
 18 19  1  0  0  0  0
 19 20  2  0  0  0  0
 20 21  1  0  0  0  0
 20 24  1  0  0  0  0
 21 22  2  0  0  0  0
 22 23  1  0  0  0  0
 22 40  1  0  0  0  0
 24 41  1  0  0  0  0
 24 42  1  0  0  0  0
 25 29  1  0  0  0  0
 25 26  1  0  0  0  0
 25 43  1  0  0  0  0
 26 27  1  0  0  0  0
 26 44  1  0  0  0  0
 26 45  1  0  0  0  0
 27 28  1  0  0  0  0
 27 46  1  0  0  0  0
 27 47  1  0  0  0  0
 28 29  1  0  0  0  0
 28 48  1  0  0  0  0
 28 49  1  0  0  0  0
 29 50  1  0  0  0  0
 29 51  1  0  0  0  0
M  END
$$$$
ZINC03832411
  -OEChem-08230709403D

 60 63  0     0  0  0  0  0  0999 V2000
   -0.0158   -0.4306   -2.4987 C   0  0  0  0  0  0  0  0  0  0  0  0
   -0.0366    1.0992   -2.4903 C   0  0  0  0  0  0  0  0  0  0  0  0
   -0.7766    1.6061   -3.7298 C   0  0  0  0  0  0  0  0  0  0  0  0
   -0.7527    1.5927   -1.2315 C   0  0  0  0  0  0  0  0  0  0  0  0
   -0.0127    1.0858    0.0080 C   0  0  0  0  0  0  0  0  0  0  0  0
   -0.7288    1.5792    1.2668 C   0  0  0  0  0  0  0  0  0  0  0  0
   -0.7496    3.1091    1.2752 C   0  0  0  0  0  0  0  0  0  0  0  0
   -1.4896    3.6159    0.0357 C   0  0  0  0  0  0  0  0  0  0  0  0
   -0.7734    3.1225   -1.2231 C   0  0  0  0  0  0  0  0  0  0  0  0
   -1.4353    3.5815    2.4806 N   0  0  0  0  0  0  0  0  0  0  0  0
   -0.7353    3.7167    3.6670 C   0  0  0  0  0  0  0  0  0  0  0  0
   -1.3922    4.1777    4.8300 C   0  0  0  0  0  0  0  0  0  0  0  0
   -2.7555    4.5000    4.8354 C   0  0  0  0  0  0  0  0  0  0  0  0
   -3.3385    4.9353    5.9880 C   0  0  0  0  0  0  0  0  0  0  0  0
   -2.6014    5.0591    7.1633 C   0  0  0  0  0  0  0  0  0  0  0  0
   -1.2746    4.7493    7.1950 C   0  0  0  0  0  0  0  0  0  0  0  0
   -0.6433    4.2991    6.0273 C   0  0  0  0  0  0  0  0  0  0  0  0
    0.7245    3.9629    5.9959 C   0  0  0  0  0  0  0  0  0  0  0  0
    1.2681    3.5325    4.8255 C   0  0  0  0  0  0  0  0  0  0  0  0
    1.5707    4.0777    7.2375 C   0  0  0  0  0  0  0  0  0  0  0  0
    1.4313    2.8012    8.0695 C   0  0  0  0  0  0  0  0  0  0  0  0
    2.2775    2.9160    9.3112 C   0  0  0  0  0  0  0  0  0  0  0  0
    3.5950    2.4841    9.3146 C   0  0  0  0  0  0  0  0  0  0  0  0
    4.3417    2.6092   10.4708 C   0  0  0  0  0  0  0  0  0  0  0  0
    3.8119    3.1229   11.5637 N   0  0  0  0  0  0  0  0  0  0  0  0
    2.5612    3.5396   11.5982 C   0  0  0  0  0  0  0  0  0  0  0  0
    1.7553    3.4506   10.4790 C   0  0  0  0  0  0  0  0  0  0  0  0
   -1.0384   -0.8079   -2.4910 H   0  0  0  0  0  0  0  0  0  0  0  0
    0.4944   -0.7821   -3.3955 H   0  0  0  0  0  0  0  0  0  0  0  0
    0.5114   -0.7917   -1.6157 H   0  0  0  0  0  0  0  0  0  0  0  0
    0.9860    1.4765   -2.4981 H   0  0  0  0  0  0  0  0  0  0  0  0
   -0.2664    1.2545   -4.6266 H   0  0  0  0  0  0  0  0  0  0  0  0
   -1.7991    1.2288   -3.7221 H   0  0  0  0  0  0  0  0  0  0  0  0
   -0.7913    2.6960   -3.7239 H   0  0  0  0  0  0  0  0  0  0  0  0
   -1.7753    1.2154   -1.2238 H   0  0  0  0  0  0  0  0  0  0  0  0
    0.0021   -0.0041    0.0020 H   0  0  0  0  0  0  0  0  0  0  0  0
    1.0099    1.4631    0.0003 H   0  0  0  0  0  0  0  0  0  0  0  0
   -1.7514    1.2020    1.2746 H   0  0  0  0  0  0  0  0  0  0  0  0
   -0.2017    1.2182    2.1499 H   0  0  0  0  0  0  0  0  0  0  0  0
    0.2730    3.4864    1.2675 H   0  0  0  0  0  0  0  0  0  0  0  0
   -1.5044    4.7058    0.0417 H   0  0  0  0  0  0  0  0  0  0  0  0
   -2.5122    3.2386    0.0434 H   0  0  0  0  0  0  0  0  0  0  0  0
    0.2491    3.4998   -1.2308 H   0  0  0  0  0  0  0  0  0  0  0  0
   -1.3006    3.4836   -2.1062 H   0  0  0  0  0  0  0  0  0  0  0  0
   -2.3799    3.7996    2.4472 H   0  0  0  0  0  0  0  0  0  0  0  0
   -3.3395    4.4081    3.9317 H   0  0  0  0  0  0  0  0  0  0  0  0
   -4.3885    5.1878    5.9901 H   0  0  0  0  0  0  0  0  0  0  0  0
   -3.0884    5.4061    8.0627 H   0  0  0  0  0  0  0  0  0  0  0  0
   -0.7139    4.8503    8.1125 H   0  0  0  0  0  0  0  0  0  0  0  0
    2.3164    3.2742    4.7988 H   0  0  0  0  0  0  0  0  0  0  0  0
    2.6144    4.2148    6.9546 H   0  0  0  0  0  0  0  0  0  0  0  0
    1.2384    4.9330    7.8259 H   0  0  0  0  0  0  0  0  0  0  0  0
    0.3876    2.6642    8.3525 H   0  0  0  0  0  0  0  0  0  0  0  0
    1.7636    1.9460    7.4811 H   0  0  0  0  0  0  0  0  0  0  0  0
    4.0332    2.0584    8.4240 H   0  0  0  0  0  0  0  0  0  0  0  0
    5.3697    2.2783   10.4807 H   0  0  0  0  0  0  0  0  0  0  0  0
    2.1620    3.9548   12.5118 H   0  0  0  0  0  0  0  0  0  0  0  0
    0.7316    3.7930   10.5138 H   0  0  0  0  0  0  0  0  0  0  0  0
    0.5882    3.3933    3.6440 N   0  3  0  0  0  0  0  0  0  0  0  0
    1.0505    3.0635    2.7886 H   0  0  0  0  0  0  0  0  0  0  0  0
  1  2  1  0  0  0  0
  1 28  1  0  0  0  0
  1 29  1  0  0  0  0
  1 30  1  0  0  0  0
  2  3  1  0  0  0  0
  2  4  1  0  0  0  0
  2 31  1  0  0  0  0
  3 32  1  0  0  0  0
  3 33  1  0  0  0  0
  3 34  1  0  0  0  0
  4  9  1  0  0  0  0
  4  5  1  0  0  0  0
  4 35  1  0  0  0  0
  5  6  1  0  0  0  0
  5 36  1  0  0  0  0
  5 37  1  0  0  0  0
  6  7  1  0  0  0  0
  6 38  1  0  0  0  0
  6 39  1  0  0  0  0
  7  8  1  0  0  0  0
  7 10  1  0  0  0  0
  7 40  1  0  0  0  0
  8  9  1  0  0  0  0
  8 41  1  0  0  0  0
  8 42  1  0  0  0  0
  9 43  1  0  0  0  0
  9 44  1  0  0  0  0
 10 11  1  0  0  0  0
 10 45  1  0  0  0  0
 11 12  2  0  0  0  0
 11 59  1  0  0  0  0
 12 17  1  0  0  0  0
 12 13  1  0  0  0  0
 13 14  2  0  0  0  0
 13 46  1  0  0  0  0
 14 15  1  0  0  0  0
 14 47  1  0  0  0  0
 15 16  2  0  0  0  0
 15 48  1  0  0  0  0
 16 17  1  0  0  0  0
 16 49  1  0  0  0  0
 17 18  2  0  0  0  0
 18 19  1  0  0  0  0
 18 20  1  0  0  0  0
 19 50  1  0  0  0  0
 19 59  2  0  0  0  0
 20 21  1  0  0  0  0
 20 51  1  0  0  0  0
 20 52  1  0  0  0  0
 21 22  1  0  0  0  0
 21 53  1  0  0  0  0
 21 54  1  0  0  0  0
 22 27  2  0  0  0  0
 22 23  1  0  0  0  0
 23 24  2  0  0  0  0
 23 55  1  0  0  0  0
 24 25  1  0  0  0  0
 24 56  1  0  0  0  0
 25 26  2  0  0  0  0
 26 27  1  0  0  0  0
 26 57  1  0  0  0  0
 27 58  1  0  0  0  0
 59 60  1  0  0  0  0
M  CHG  1  59   1
M  END
$$$$
ZINC03832412
  -OEChem-08230709403D

 34 38  0     0  0  0  0  0  0999 V2000
    0.5900    9.0336    0.0471 C   0  0  0  0  0  0  0  0  0  0  0  0
   -0.6060    8.1168    0.0534 C   0  0  0  0  0  0  0  0  0  0  0  0
   -1.8859    8.6509    0.0695 C   0  0  0  0  0  0  0  0  0  0  0  0
   -2.9906    7.8270    0.0756 C   0  0  0  0  0  0  0  0  0  0  0  0
   -2.8284    6.4448    0.0653 C   0  0  0  0  0  0  0  0  0  0  0  0
   -1.5325    5.9060    0.0495 C   0  0  0  0  0  0  0  0  0  0  0  0
   -0.4239    6.7512    0.0437 C   0  0  0  0  0  0  0  0  0  0  0  0
   -1.6912    4.4418    0.0425 C   0  0  0  0  0  0  0  0  0  0  0  0
   -0.7736    3.3779    0.0276 C   0  0  0  0  0  0  0  0  0  0  0  0
   -1.2233    2.0541    0.0184 C   0  0  0  0  0  0  0  0  0  0  0  0
   -2.6078    1.7843    0.0370 C   0  0  0  0  0  0  0  0  0  0  0  0
   -3.1050    0.4723    0.0353 C   0  0  0  0  0  0  0  0  0  0  0  0
   -4.4005    0.2606    0.0473 N   0  0  0  0  0  0  0  0  0  0  0  0
   -5.2864    1.2457    0.0613 C   0  0  0  0  0  0  0  0  0  0  0  0
   -4.9044    2.5546    0.0641 C   0  0  0  0  0  0  0  0  0  0  0  0
   -3.5330    2.8590    0.0519 C   0  0  0  0  0  0  0  0  0  0  0  0
   -3.0701    4.1935    0.0546 C   0  0  0  0  0  0  0  0  0  0  0  0
   -3.7308    5.3987    0.0680 N   0  0  0  0  0  0  0  0  0  0  0  0
   -4.6954    5.5005    0.0780 H   0  0  0  0  0  0  0  0  0  0  0  0
   -0.0144    1.2108    0.0087 C   0  0  0  0  0  0  0  0  0  0  0  0
    0.0021   -0.0041    0.0020 O   0  0  0  0  0  0  0  0  0  0  0  0
    1.0673    2.0100    0.0027 N   0  0  0  0  0  0  0  0  0  0  0  0
    0.7040    3.3049    0.0131 C   0  0  0  0  0  0  0  0  0  0  0  0
    1.4613    4.2543    0.0110 O   0  0  0  0  0  0  0  0  0  0  0  0
    0.8684    9.2607   -0.9820 H   0  0  0  0  0  0  0  0  0  0  0  0
    0.3420    9.9580    0.5688 H   0  0  0  0  0  0  0  0  0  0  0  0
    1.4248    8.5453    0.5500 H   0  0  0  0  0  0  0  0  0  0  0  0
   -2.0181    9.7228    0.0773 H   0  0  0  0  0  0  0  0  0  0  0  0
   -3.9825    8.2540    0.0874 H   0  0  0  0  0  0  0  0  0  0  0  0
    0.5735    6.3372    0.0312 H   0  0  0  0  0  0  0  0  0  0  0  0
   -2.4215   -0.3638    0.0241 H   0  0  0  0  0  0  0  0  0  0  0  0
   -6.3393    1.0055    0.0703 H   0  0  0  0  0  0  0  0  0  0  0  0
   -5.6426    3.3428    0.0752 H   0  0  0  0  0  0  0  0  0  0  0  0
    1.9848    1.6952   -0.0073 H   0  0  0  0  0  0  0  0  0  0  0  0
  1  2  1  0  0  0  0
  1 25  1  0  0  0  0
  1 26  1  0  0  0  0
  1 27  1  0  0  0  0
  2  7  2  0  0  0  0
  2  3  1  0  0  0  0
  3  4  2  0  0  0  0
  3 28  1  0  0  0  0
  4  5  1  0  0  0  0
  4 29  1  0  0  0  0
  5 18  1  0  0  0  0
  5  6  2  0  0  0  0
  6  7  1  0  0  0  0
  6  8  1  0  0  0  0
  7 30  1  0  0  0  0
  8 17  2  0  0  0  0
  8  9  1  0  0  0  0
  9 23  1  0  0  0  0
  9 10  2  0  0  0  0
 10 11  1  0  0  0  0
 10 20  1  0  0  0  0
 11 16  2  0  0  0  0
 11 12  1  0  0  0  0
 12 13  2  0  0  0  0
 12 31  1  0  0  0  0
 13 14  1  0  0  0  0
 14 15  2  0  0  0  0
 14 32  1  0  0  0  0
 15 16  1  0  0  0  0
 15 33  1  0  0  0  0
 16 17  1  0  0  0  0
 17 18  1  0  0  0  0
 18 19  1  0  0  0  0
 20 21  2  0  0  0  0
 20 22  1  0  0  0  0
 22 23  1  0  0  0  0
 22 34  1  0  0  0  0
 23 24  2  0  0  0  0
M  END
$$$$
ZINC03834188
  -OEChem-08230709403D

 79 84  0     0  0  0  0  0  0999 V2000
    1.1957    4.0656   -0.4671 C   0  0  0  0  0  0  0  0  0  0  0  0
    1.3792    2.7129   -1.1580 C   0  0  0  0  0  0  0  0  0  0  0  0
    1.1818    1.6363   -0.1842 N   0  0  0  0  0  0  0  0  0  0  0  0
    2.1409    1.1527    0.6598 C   0  0  0  0  0  0  0  0  0  0  0  0
    1.5355    0.1522    1.4005 C   0  0  0  0  0  0  0  0  0  0  0  0
    0.2175    0.0981    0.9415 C   0  0  0  0  0  0  0  0  0  0  0  0
    0.0808    1.0029    0.0060 N   0  0  0  0  0  0  0  0  0  0  0  0
   -0.8564   -0.8367    1.4354 C   0  0  0  0  0  0  0  0  0  0  0  0
    3.5375    1.6042    0.7608 C   0  0  0  0  0  0  0  0  0  0  0  0
    4.3207    1.0042    1.4724 O   0  0  0  0  0  0  0  0  0  0  0  0
    3.9491    2.6825    0.0649 N   0  0  0  0  0  0  0  0  0  0  0  0
    5.2995    3.0462    0.0730 C   0  0  0  0  0  0  0  0  0  0  0  0
    6.2832    2.0660    0.1298 C   0  0  0  0  0  0  0  0  0  0  0  0
    7.6183    2.4216    0.1326 C   0  0  0  0  0  0  0  0  0  0  0  0
    7.9826    3.7529    0.0905 C   0  0  0  0  0  0  0  0  0  0  0  0
    7.0031    4.7424    0.0388 C   0  0  0  0  0  0  0  0  0  0  0  0
    5.6576    4.3853    0.0301 C   0  0  0  0  0  0  0  0  0  0  0  0
    7.3933    6.1741   -0.0074 C   0  0  0  0  0  0  0  0  0  0  0  0
    6.5544    7.2279   -0.0597 N   0  0  0  0  0  0  0  0  0  0  0  0
    7.3348    8.2999   -0.0859 C   0  0  0  0  0  0  0  0  0  0  0  0
    8.6036    7.8558   -0.0488 O   0  0  0  0  0  0  0  0  0  0  0  0
    8.6149    6.6443    0.0008 N   0  0  0  0  0  0  0  0  0  0  0  0
    6.8996    9.6953   -0.1444 C   0  0  0  0  0  0  0  0  0  0  0  0
    7.6578   10.8652   -0.1746 C   0  0  0  0  0  0  0  0  0  0  0  0
    7.0069   12.0060   -0.2273 N   0  0  0  0  0  0  0  0  0  0  0  0
    5.6930   12.0533   -0.2511 C   0  0  0  0  0  0  0  0  0  0  0  0
    5.2482   10.3757   -0.2050 S   0  0  0  0  0  0  0  0  0  0  0  0
    4.7962   13.2629   -0.3106 C   0  0  0  0  0  0  0  0  0  0  0  0
    4.5216   13.6144   -1.7500 C   0  0  0  0  0  0  0  0  0  0  0  0
    5.3536   14.4961   -2.4278 C   0  0  0  0  0  0  0  0  0  0  0  0
    5.0690   14.7885   -3.7492 C   0  0  0  0  0  0  0  0  0  0  0  0
    3.9591   14.2009   -4.3483 C   0  0  0  0  0  0  0  0  0  0  0  0
    3.4374   13.0679   -2.4065 C   0  0  0  0  0  0  0  0  0  0  0  0
    3.6586   14.4896   -5.6744 N   0  0  0  0  0  0  0  0  0  0  0  0
    3.5047   15.9371   -5.8764 C   0  0  0  0  0  0  0  0  0  0  0  0
    3.2539   16.2187   -7.3597 C   0  0  0  0  0  0  0  0  0  0  0  0
    2.2036   14.0506   -7.5937 C   0  0  0  0  0  0  0  0  0  0  0  0
    2.4543   13.7690   -6.1104 C   0  0  0  0  0  0  0  0  0  0  0  0
    1.7320   15.8032   -9.1971 C   0  0  0  0  0  0  0  0  0  0  0  0
    9.0490   10.8266   -0.1494 N   0  0  0  0  0  0  0  0  0  0  0  0
    9.4401    4.1357    0.1001 C   0  0  0  0  0  0  0  0  0  0  0  0
    1.3425    4.8665   -1.1917 H   0  0  0  0  0  0  0  0  0  0  0  0
    0.1889    4.1291   -0.0543 H   0  0  0  0  0  0  0  0  0  0  0  0
    1.9250    4.1648    0.3369 H   0  0  0  0  0  0  0  0  0  0  0  0
    2.3860    2.6493   -1.5708 H   0  0  0  0  0  0  0  0  0  0  0  0
    0.6499    2.6137   -1.9621 H   0  0  0  0  0  0  0  0  0  0  0  0
    1.9864   -0.4569    2.1700 H   0  0  0  0  0  0  0  0  0  0  0  0
   -0.8400   -1.7531    0.8454 H   0  0  0  0  0  0  0  0  0  0  0  0
   -0.6759   -1.0760    2.4834 H   0  0  0  0  0  0  0  0  0  0  0  0
   -1.8300   -0.3571    1.3347 H   0  0  0  0  0  0  0  0  0  0  0  0
    3.3088    3.2063   -0.4415 H   0  0  0  0  0  0  0  0  0  0  0  0
    6.0033    1.0236    0.1676 H   0  0  0  0  0  0  0  0  0  0  0  0
    8.3792    1.6562    0.1726 H   0  0  0  0  0  0  0  0  0  0  0  0
    4.8948    5.1488   -0.0103 H   0  0  0  0  0  0  0  0  0  0  0  0
    3.8561   13.0434    0.1956 H   0  0  0  0  0  0  0  0  0  0  0  0
    5.2863   14.1030    0.1815 H   0  0  0  0  0  0  0  0  0  0  0  0
    6.2059   14.9402   -1.9352 H   0  0  0  0  0  0  0  0  0  0  0  0
    5.6975   15.4666   -4.3074 H   0  0  0  0  0  0  0  0  0  0  0  0
    2.7853   12.3853   -1.8818 H   0  0  0  0  0  0  0  0  0  0  0  0
    2.6600   16.2984   -5.2898 H   0  0  0  0  0  0  0  0  0  0  0  0
    4.4137   16.4474   -5.5580 H   0  0  0  0  0  0  0  0  0  0  0  0
    4.1106   15.8820   -7.9436 H   0  0  0  0  0  0  0  0  0  0  0  0
    3.1109   17.2890   -7.5079 H   0  0  0  0  0  0  0  0  0  0  0  0
    3.0482   13.6893   -8.1803 H   0  0  0  0  0  0  0  0  0  0  0  0
    1.2947   13.5400   -7.9122 H   0  0  0  0  0  0  0  0  0  0  0  0
    2.5975   12.6986   -5.9626 H   0  0  0  0  0  0  0  0  0  0  0  0
    1.5978   14.1054   -5.5262 H   0  0  0  0  0  0  0  0  0  0  0  0
    0.7999   15.3106   -9.4739 H   0  0  0  0  0  0  0  0  0  0  0  0
    1.6235   16.8809   -9.3187 H   0  0  0  0  0  0  0  0  0  0  0  0
    2.5370   15.4444   -9.8386 H   0  0  0  0  0  0  0  0  0  0  0  0
    9.5099    9.9740   -0.1100 H   0  0  0  0  0  0  0  0  0  0  0  0
    9.5576   11.6523   -0.1711 H   0  0  0  0  0  0  0  0  0  0  0  0
    9.7750    4.2653    1.1292 H   0  0  0  0  0  0  0  0  0  0  0  0
   10.0255    3.3491   -0.3761 H   0  0  0  0  0  0  0  0  0  0  0  0
    9.5742    5.0695   -0.4459 H   0  0  0  0  0  0  0  0  0  0  0  0
    3.1245   13.3364   -3.7024 N   0  3  0  0  0  0  0  0  0  0  0  0
    2.3109   12.9149   -4.1657 H   0  0  0  0  0  0  0  0  0  0  0  0
    2.0286   15.5064   -7.7794 N   0  3  0  0  0  0  0  0  0  0  0  0
    1.2426   15.8246   -7.2004 H   0  0  0  0  0  0  0  0  0  0  0  0
  1  2  1  0  0  0  0
  1 42  1  0  0  0  0
  1 43  1  0  0  0  0
  1 44  1  0  0  0  0
  2  3  1  0  0  0  0
  2 45  1  0  0  0  0
  2 46  1  0  0  0  0
  3  7  1  0  0  0  0
  3  4  1  0  0  0  0
  4  5  2  0  0  0  0
  4  9  1  0  0  0  0
  5  6  1  0  0  0  0
  5 47  1  0  0  0  0
  6  7  2  0  0  0  0
  6  8  1  0  0  0  0
  8 48  1  0  0  0  0
  8 49  1  0  0  0  0
  8 50  1  0  0  0  0
  9 10  2  0  0  0  0
  9 11  1  0  0  0  0
 11 12  1  0  0  0  0
 11 51  1  0  0  0  0
 12 17  2  0  0  0  0
 12 13  1  0  0  0  0
 13 14  2  0  0  0  0
 13 52  1  0  0  0  0
 14 15  1  0  0  0  0
 14 53  1  0  0  0  0
 15 16  2  0  0  0  0
 15 41  1  0  0  0  0
 16 17  1  0  0  0  0
 16 18  1  0  0  0  0
 17 54  1  0  0  0  0
 18 22  2  0  0  0  0
 18 19  1  0  0  0  0
 19 20  2  0  0  0  0
 20 21  1  0  0  0  0
 20 23  1  0  0  0  0
 21 22  1  0  0  0  0
 23 27  1  0  0  0  0
 23 24  2  0  0  0  0
 24 25  1  0  0  0  0
 24 40  1  0  0  0  0
 25 26  2  0  0  0  0
 26 27  1  0  0  0  0
 26 28  1  0  0  0  0
 28 29  1  0  0  0  0
 28 55  1  0  0  0  0
 28 56  1  0  0  0  0
 29 33  2  0  0  0  0
 29 30  1  0  0  0  0
 30 31  2  0  0  0  0
 30 57  1  0  0  0  0
 31 32  1  0  0  0  0
 31 58  1  0  0  0  0
 32 34  1  0  0  0  0
 32 76  2  0  0  0  0
 33 59  1  0  0  0  0
 33 76  1  0  0  0  0
 34 38  1  0  0  0  0
 34 35  1  0  0  0  0
 35 36  1  0  0  0  0
 35 60  1  0  0  0  0
 35 61  1  0  0  0  0
 36 62  1  0  0  0  0
 36 63  1  0  0  0  0
 36 78  1  0  0  0  0
 37 38  1  0  0  0  0
 37 64  1  0  0  0  0
 37 65  1  0  0  0  0
 37 78  1  0  0  0  0
 38 66  1  0  0  0  0
 38 67  1  0  0  0  0
 39 68  1  0  0  0  0
 39 69  1  0  0  0  0
 39 70  1  0  0  0  0
 39 78  1  0  0  0  0
 40 71  1  0  0  0  0
 40 72  1  0  0  0  0
 41 73  1  0  0  0  0
 41 74  1  0  0  0  0
 41 75  1  0  0  0  0
 76 77  1  0  0  0  0
 78 79  1  0  0  0  0
M  CHG  2  76   1  78   1
M  END
$$$$
ZINC03834189
  -OEChem-08230709403D

 43 45  0     0  0  0  0  0  0999 V2000
   -2.7073    1.0177   -2.4877 C   0  0  0  0  0  0  0  0  0  0  0  0
   -1.8533    0.8147   -1.3601 O   0  0  0  0  0  0  0  0  0  0  0  0
   -1.6565   -0.5592   -1.0200 C   0  0  0  0  0  0  0  0  0  0  0  0
   -0.7311   -0.6565    0.1945 C   0  0  0  0  0  0  0  0  0  0  0  0
   -1.3732   -0.0741    1.3305 O   0  0  0  0  0  0  0  0  0  0  0  0
   -0.6813   -0.0787    2.5001 C   0  0  0  0  0  0  0  0  0  0  0  0
    0.5687   -0.6265    2.5402 C   0  0  0  0  0  0  0  0  0  0  0  0
    1.2863   -0.6326    3.7465 C   0  0  0  0  0  0  0  0  0  0  0  0
    0.6962   -0.0670    4.9054 C   0  0  0  0  0  0  0  0  0  0  0  0
   -0.5867    0.4881    4.8367 C   0  0  0  0  0  0  0  0  0  0  0  0
   -1.2592    0.4844    3.6472 C   0  0  0  0  0  0  0  0  0  0  0  0
   -2.5032    1.0278    3.5762 O   0  0  0  0  0  0  0  0  0  0  0  0
   -3.0371    1.5856    4.7786 C   0  0  0  0  0  0  0  0  0  0  0  0
    1.4419   -0.0877    6.1079 C   0  0  0  0  0  0  0  0  0  0  0  0
    2.7034   -0.6626    6.0636 C   0  0  0  0  0  0  0  0  0  0  0  0
    3.1711   -1.1661    4.9328 N   0  0  0  0  0  0  0  0  0  0  0  0
    2.5130   -1.1590    3.8304 N   0  0  0  0  0  0  0  0  0  0  0  0
    0.9318    0.4460    7.2838 N   0  0  0  0  0  0  0  0  0  0  0  0
    1.7359    0.5162    8.4267 C   0  0  0  0  0  0  0  0  0  0  0  0
    3.0582    0.9268    8.3229 C   0  0  0  0  0  0  0  0  0  0  0  0
    3.8500    0.9953    9.4528 C   0  0  0  0  0  0  0  0  0  0  0  0
    3.3273    0.6557   10.6883 C   0  0  0  0  0  0  0  0  0  0  0  0
    2.0101    0.2454   10.7965 C   0  0  0  0  0  0  0  0  0  0  0  0
    1.2107    0.1803    9.6700 C   0  0  0  0  0  0  0  0  0  0  0  0
   -0.0770   -0.2145    9.7762 F   0  0  0  0  0  0  0  0  0  0  0  0
    4.3263    0.7439   12.1053 Cl  0  0  0  0  0  0  0  0  0  0  0  0
   -3.6898    0.5938   -2.2804 H   0  0  0  0  0  0  0  0  0  0  0  0
   -2.8059    2.0859   -2.6811 H   0  0  0  0  0  0  0  0  0  0  0  0
   -2.2775    0.5284   -3.3618 H   0  0  0  0  0  0  0  0  0  0  0  0
   -1.2049   -1.0813   -1.8636 H   0  0  0  0  0  0  0  0  0  0  0  0
   -2.6172   -1.0159   -0.7823 H   0  0  0  0  0  0  0  0  0  0  0  0
   -0.5096   -1.7038    0.3996 H   0  0  0  0  0  0  0  0  0  0  0  0
    0.1966   -0.1226   -0.0118 H   0  0  0  0  0  0  0  0  0  0  0  0
    1.0034   -1.0528    1.6481 H   0  0  0  0  0  0  0  0  0  0  0  0
   -1.0403    0.9200    5.7166 H   0  0  0  0  0  0  0  0  0  0  0  0
   -3.0992    0.8105    5.5424 H   0  0  0  0  0  0  0  0  0  0  0  0
   -2.3866    2.3878    5.1271 H   0  0  0  0  0  0  0  0  0  0  0  0
   -4.0327    1.9841    4.5835 H   0  0  0  0  0  0  0  0  0  0  0  0
    3.3077   -0.6998    6.9579 H   0  0  0  0  0  0  0  0  0  0  0  0
    0.0181    0.7702    7.3130 H   0  0  0  0  0  0  0  0  0  0  0  0
    3.4673    1.1929    7.3595 H   0  0  0  0  0  0  0  0  0  0  0  0
    4.8785    1.3148    9.3718 H   0  0  0  0  0  0  0  0  0  0  0  0
    1.6049   -0.0194   11.7619 H   0  0  0  0  0  0  0  0  0  0  0  0
  1  2  1  0  0  0  0
  1 27  1  0  0  0  0
  1 28  1  0  0  0  0
  1 29  1  0  0  0  0
  2  3  1  0  0  0  0
  3  4  1  0  0  0  0
  3 30  1  0  0  0  0
  3 31  1  0  0  0  0
  4  5  1  0  0  0  0
  4 32  1  0  0  0  0
  4 33  1  0  0  0  0
  5  6  1  0  0  0  0
  6 11  2  0  0  0  0
  6  7  1  0  0  0  0
  7  8  2  0  0  0  0
  7 34  1  0  0  0  0
  8 17  1  0  0  0  0
  8  9  1  0  0  0  0
  9 10  2  0  0  0  0
  9 14  1  0  0  0  0
 10 11  1  0  0  0  0
 10 35  1  0  0  0  0
 11 12  1  0  0  0  0
 12 13  1  0  0  0  0
 13 36  1  0  0  0  0
 13 37  1  0  0  0  0
 13 38  1  0  0  0  0
 14 15  2  0  0  0  0
 14 18  1  0  0  0  0
 15 16  1  0  0  0  0
 15 39  1  0  0  0  0
 16 17  2  0  0  0  0
 18 19  1  0  0  0  0
 18 40  1  0  0  0  0
 19 24  2  0  0  0  0
 19 20  1  0  0  0  0
 20 21  2  0  0  0  0
 20 41  1  0  0  0  0
 21 22  1  0  0  0  0
 21 42  1  0  0  0  0
 22 23  2  0  0  0  0
 22 26  1  0  0  0  0
 23 24  1  0  0  0  0
 23 43  1  0  0  0  0
 24 25  1  0  0  0  0
M  END
$$$$
ZINC03834190
  -OEChem-08230709403D

 44 46  0     0  0  0  0  0  0999 V2000
   10.1604   10.4459   -2.1956 C   0  0  0  0  0  0  0  0  0  0  0  0
    8.8551    9.9030   -1.9870 O   0  0  0  0  0  0  0  0  0  0  0  0
    8.2474   10.3064   -0.7582 C   0  0  0  0  0  0  0  0  0  0  0  0
    6.8613    9.6691   -0.6414 C   0  0  0  0  0  0  0  0  0  0  0  0
    6.9960    8.2495   -0.5484 O   0  0  0  0  0  0  0  0  0  0  0  0
    5.8504    7.5271   -0.4381 C   0  0  0  0  0  0  0  0  0  0  0  0
    4.6467    8.1712   -0.4211 C   0  0  0  0  0  0  0  0  0  0  0  0
    3.4595    7.4294   -0.3068 C   0  0  0  0  0  0  0  0  0  0  0  0
    3.5337    6.0192   -0.2050 C   0  0  0  0  0  0  0  0  0  0  0  0
    4.7830    5.3827   -0.2313 C   0  0  0  0  0  0  0  0  0  0  0  0
    5.9200    6.1302   -0.3428 C   0  0  0  0  0  0  0  0  0  0  0  0
    7.1318    5.5136   -0.3622 O   0  0  0  0  0  0  0  0  0  0  0  0
    7.1362    4.0881   -0.2615 C   0  0  0  0  0  0  0  0  0  0  0  0
    2.3340    5.2771   -0.0962 C   0  0  0  0  0  0  0  0  0  0  0  0
    1.1369    5.9764   -0.0838 C   0  0  0  0  0  0  0  0  0  0  0  0
    1.1482    7.3608   -0.1827 C   0  0  0  0  0  0  0  0  0  0  0  0
    2.2676    8.0387   -0.2883 N   0  0  0  0  0  0  0  0  0  0  0  0
    2.3551    3.8930    0.0009 N   0  0  0  0  0  0  0  0  0  0  0  0
    1.1564    3.1716   -0.0235 C   0  0  0  0  0  0  0  0  0  0  0  0
    0.7287    2.4944    1.1107 C   0  0  0  0  0  0  0  0  0  0  0  0
   -0.4548    1.7825    1.0839 C   0  0  0  0  0  0  0  0  0  0  0  0
   -1.2179    1.7479   -0.0700 C   0  0  0  0  0  0  0  0  0  0  0  0
   -0.7928    2.4165   -1.2045 C   0  0  0  0  0  0  0  0  0  0  0  0
    0.3910    3.1309   -1.1841 C   0  0  0  0  0  0  0  0  0  0  0  0
    0.8033    3.7888   -2.2898 F   0  0  0  0  0  0  0  0  0  0  0  0
   -2.7081    0.8577   -0.0965 Cl  0  0  0  0  0  0  0  0  0  0  0  0
   10.1036   11.5343   -2.2070 H   0  0  0  0  0  0  0  0  0  0  0  0
   10.8205   10.1249   -1.3897 H   0  0  0  0  0  0  0  0  0  0  0  0
   10.5528   10.0925   -3.1491 H   0  0  0  0  0  0  0  0  0  0  0  0
    8.1509   11.3919   -0.7398 H   0  0  0  0  0  0  0  0  0  0  0  0
    8.8677    9.9825    0.0775 H   0  0  0  0  0  0  0  0  0  0  0  0
    6.2702    9.9211   -1.5219 H   0  0  0  0  0  0  0  0  0  0  0  0
    6.3622   10.0460    0.2513 H   0  0  0  0  0  0  0  0  0  0  0  0
    4.6074    9.2479   -0.4957 H   0  0  0  0  0  0  0  0  0  0  0  0
    4.8456    4.3070   -0.1588 H   0  0  0  0  0  0  0  0  0  0  0  0
    8.1635    3.7251   -0.2892 H   0  0  0  0  0  0  0  0  0  0  0  0
    6.6702    3.7888    0.6773 H   0  0  0  0  0  0  0  0  0  0  0  0
    6.5780    3.6633   -1.0958 H   0  0  0  0  0  0  0  0  0  0  0  0
    0.1998    5.4464    0.0020 H   0  0  0  0  0  0  0  0  0  0  0  0
    0.2099    7.8954   -0.1720 H   0  0  0  0  0  0  0  0  0  0  0  0
    3.2008    3.4256    0.0858 H   0  0  0  0  0  0  0  0  0  0  0  0
    1.3209    2.5246    2.0134 H   0  0  0  0  0  0  0  0  0  0  0  0
   -0.7873    1.2559    1.9663 H   0  0  0  0  0  0  0  0  0  0  0  0
   -1.3882    2.3841   -2.1050 H   0  0  0  0  0  0  0  0  0  0  0  0
  1  2  1  0  0  0  0
  1 27  1  0  0  0  0
  1 28  1  0  0  0  0
  1 29  1  0  0  0  0
  2  3  1  0  0  0  0
  3  4  1  0  0  0  0
  3 30  1  0  0  0  0
  3 31  1  0  0  0  0
  4  5  1  0  0  0  0
  4 32  1  0  0  0  0
  4 33  1  0  0  0  0
  5  6  1  0  0  0  0
  6 11  2  0  0  0  0
  6  7  1  0  0  0  0
  7  8  2  0  0  0  0
  7 34  1  0  0  0  0
  8 17  1  0  0  0  0
  8  9  1  0  0  0  0
  9 10  2  0  0  0  0
  9 14  1  0  0  0  0
 10 11  1  0  0  0  0
 10 35  1  0  0  0  0
 11 12  1  0  0  0  0
 12 13  1  0  0  0  0
 13 36  1  0  0  0  0
 13 37  1  0  0  0  0
 13 38  1  0  0  0  0
 14 15  2  0  0  0  0
 14 18  1  0  0  0  0
 15 16  1  0  0  0  0
 15 39  1  0  0  0  0
 16 17  2  0  0  0  0
 16 40  1  0  0  0  0
 18 19  1  0  0  0  0
 18 41  1  0  0  0  0
 19 24  2  0  0  0  0
 19 20  1  0  0  0  0
 20 21  2  0  0  0  0
 20 42  1  0  0  0  0
 21 22  1  0  0  0  0
 21 43  1  0  0  0  0
 22 23  2  0  0  0  0
 22 26  1  0  0  0  0
 23 24  1  0  0  0  0
 23 44  1  0  0  0  0
 24 25  1  0  0  0  0
M  END
$$$$
ZINC03834191
  -OEChem-08230709403D

 57 59  0     0  0  0  0  0  0999 V2000
    0.2005    2.5208   -6.4778 C   0  0  0  0  0  0  0  0  0  0  0  0
   -0.0440    1.2899   -7.0590 C   0  0  0  0  0  0  0  0  0  0  0  0
   -0.9689    0.4298   -6.4954 C   0  0  0  0  0  0  0  0  0  0  0  0
   -1.6513    0.8010   -5.3493 C   0  0  0  0  0  0  0  0  0  0  0  0
   -1.4074    2.0330   -4.7673 C   0  0  0  0  0  0  0  0  0  0  0  0
   -0.4851    2.8954   -5.3347 C   0  0  0  0  0  0  0  0  0  0  0  0
   -0.2502    4.1001   -4.7702 F   0  0  0  0  0  0  0  0  0  0  0  0
   -2.1502    2.4379   -3.5202 C   0  0  0  0  0  0  0  0  0  0  0  0
   -1.4147    2.0165   -2.3697 O   0  0  0  0  0  0  0  0  0  0  0  0
   -1.9502    2.3057   -1.1557 C   0  0  0  0  0  0  0  0  0  0  0  0
   -1.2943    1.9287    0.0187 C   0  0  0  0  0  0  0  0  0  0  0  0
   -1.9426    2.2880    1.2044 C   0  0  0  0  0  0  0  0  0  0  0  0
   -3.3627    3.0849    0.6140 S   0  0  0  0  0  0  0  0  0  0  0  0
   -3.0907    2.9376   -1.0651 N   0  0  0  0  0  0  0  0  0  0  0  0
   -1.5501    2.0644    2.5138 N   0  0  0  0  0  0  0  0  0  0  0  0
   -2.3225    2.4937    3.5315 C   0  0  0  0  0  0  0  0  0  0  0  0
   -3.3637    3.0773    3.3001 O   0  0  0  0  0  0  0  0  0  0  0  0
   -1.9407    2.2761    4.8056 N   0  0  0  0  0  0  0  0  0  0  0  0
   -2.7802    2.7427    5.9117 C   0  0  0  0  0  0  0  0  0  0  0  0
   -2.1233    2.3710    7.2426 C   0  0  0  0  0  0  0  0  0  0  0  0
   -3.0001    2.8583    8.3978 C   0  0  0  0  0  0  0  0  0  0  0  0
   -2.3432    2.4866    9.7287 C   0  0  0  0  0  0  0  0  0  0  0  0
   -4.5824    2.4747   10.6847 C   0  0  0  0  0  0  0  0  0  0  0  0
   -5.1552    2.5875   12.1199 C   0  0  0  0  0  0  0  0  0  0  0  0
   -3.9561    2.1749   13.0041 C   0  0  0  0  0  0  0  0  0  0  0  0
   -2.7112    2.4105   12.1290 C   0  0  0  0  0  0  0  0  0  0  0  0
   -0.0144    1.2128    0.0087 C   0  0  0  0  0  0  0  0  0  0  0  0
    0.0021   -0.0041    0.0020 O   0  0  0  0  0  0  0  0  0  0  0  0
    1.1435    1.9025    0.0014 N   0  0  0  0  0  0  0  0  0  0  0  0
   -2.5547   -0.0393   -4.7990 F   0  0  0  0  0  0  0  0  0  0  0  0
    0.8871    0.7824   -8.6246 Br  0  0  0  0  0  0  0  0  0  0  0  0
    0.9228    3.1920   -6.9184 H   0  0  0  0  0  0  0  0  0  0  0  0
   -1.1591   -0.5314   -6.9496 H   0  0  0  0  0  0  0  0  0  0  0  0
   -3.1339    1.9683   -3.5146 H   0  0  0  0  0  0  0  0  0  0  0  0
   -2.2649    3.5217   -3.5013 H   0  0  0  0  0  0  0  0  0  0  0  0
   -0.7195    1.5988    2.6984 H   0  0  0  0  0  0  0  0  0  0  0  0
   -1.1100    1.8105    4.9901 H   0  0  0  0  0  0  0  0  0  0  0  0
   -2.8918    3.8253    5.8515 H   0  0  0  0  0  0  0  0  0  0  0  0
   -3.7613    2.2722    5.8468 H   0  0  0  0  0  0  0  0  0  0  0  0
   -2.0117    1.2884    7.3028 H   0  0  0  0  0  0  0  0  0  0  0  0
   -1.1422    2.8415    7.3075 H   0  0  0  0  0  0  0  0  0  0  0  0
   -3.1117    3.9409    8.3376 H   0  0  0  0  0  0  0  0  0  0  0  0
   -3.9812    2.3878    8.3329 H   0  0  0  0  0  0  0  0  0  0  0  0
   -2.2316    1.4040    9.7889 H   0  0  0  0  0  0  0  0  0  0  0  0
   -1.3621    2.9571    9.7936 H   0  0  0  0  0  0  0  0  0  0  0  0
   -5.1360    3.1151    9.9981 H   0  0  0  0  0  0  0  0  0  0  0  0
   -4.5985    1.4393   10.3443 H   0  0  0  0  0  0  0  0  0  0  0  0
   -5.9901    1.9003   12.2570 H   0  0  0  0  0  0  0  0  0  0  0  0
   -5.4584    3.6122   12.3347 H   0  0  0  0  0  0  0  0  0  0  0  0
   -4.0324    1.1227   13.2781 H   0  0  0  0  0  0  0  0  0  0  0  0
   -3.9135    2.7972   13.8980 H   0  0  0  0  0  0  0  0  0  0  0  0
   -2.1885    1.4681   11.9654 H   0  0  0  0  0  0  0  0  0  0  0  0
   -2.0474    3.1272   12.6127 H   0  0  0  0  0  0  0  0  0  0  0  0
    1.9900    1.4290   -0.0093 H   0  0  0  0  0  0  0  0  0  0  0  0
    1.1303    2.8724    0.0067 H   0  0  0  0  0  0  0  0  0  0  0  0
   -3.2013    2.9507   10.8601 N   0  3  0  0  0  0  0  0  0  0  0  0
   -3.1895    3.9769   10.8926 H   0  0  0  0  0  0  0  0  0  0  0  0
  1  6  2  0  0  0  0
  1  2  1  0  0  0  0
  1 32  1  0  0  0  0
  2  3  2  0  0  0  0
  2 31  1  0  0  0  0
  3  4  1  0  0  0  0
  3 33  1  0  0  0  0
  4  5  2  0  0  0  0
  4 30  1  0  0  0  0
  5  6  1  0  0  0  0
  5  8  1  0  0  0  0
  6  7  1  0  0  0  0
  8  9  1  0  0  0  0
  8 34  1  0  0  0  0
  8 35  1  0  0  0  0
  9 10  1  0  0  0  0
 10 14  2  0  0  0  0
 10 11  1  0  0  0  0
 11 12  2  0  0  0  0
 11 27  1  0  0  0  0
 12 13  1  0  0  0  0
 12 15  1  0  0  0  0
 13 14  1  0  0  0  0
 15 16  1  0  0  0  0
 15 36  1  0  0  0  0
 16 17  2  0  0  0  0
 16 18  1  0  0  0  0
 18 19  1  0  0  0  0
 18 37  1  0  0  0  0
 19 20  1  0  0  0  0
 19 38  1  0  0  0  0
 19 39  1  0  0  0  0
 20 21  1  0  0  0  0
 20 40  1  0  0  0  0
 20 41  1  0  0  0  0
 21 22  1  0  0  0  0
 21 42  1  0  0  0  0
 21 43  1  0  0  0  0
 22 44  1  0  0  0  0
 22 45  1  0  0  0  0
 22 56  1  0  0  0  0
 23 24  1  0  0  0  0
 23 46  1  0  0  0  0
 23 47  1  0  0  0  0
 23 56  1  0  0  0  0
 24 25  1  0  0  0  0
 24 48  1  0  0  0  0
 24 49  1  0  0  0  0
 25 26  1  0  0  0  0
 25 50  1  0  0  0  0
 25 51  1  0  0  0  0
 26 52  1  0  0  0  0
 26 53  1  0  0  0  0
 26 56  1  0  0  0  0
 27 28  2  0  0  0  0
 27 29  1  0  0  0  0
 29 54  1  0  0  0  0
 29 55  1  0  0  0  0
 56 57  1  0  0  0  0
M  CHG  1  56   1
M  END
$$$$
ZINC03834193
  -OEChem-08230709403D

 73 77  0     0  0  0  0  0  0999 V2000
    4.0655    9.7885   -0.7222 C   0  0  0  0  0  0  0  0  0  0  0  0
    4.8779    7.7237    0.2482 C   0  0  0  0  0  0  0  0  0  0  0  0
    5.0260    6.2198    0.0057 C   0  0  0  0  0  0  0  0  0  0  0  0
    2.9784    6.2263   -1.2850 C   0  0  0  0  0  0  0  0  0  0  0  0
    2.8303    7.7302   -1.0425 C   0  0  0  0  0  0  0  0  0  0  0  0
    3.7908    4.1616   -0.3145 C   0  0  0  0  0  0  0  0  0  0  0  0
    4.0736    3.5171    1.0440 C   0  0  0  0  0  0  0  0  0  0  0  0
    2.9403    3.6879    1.8975 O   0  0  0  0  0  0  0  0  0  0  0  0
    3.0279    3.1697    3.1501 C   0  0  0  0  0  0  0  0  0  0  0  0
    4.1744    2.5118    3.5363 C   0  0  0  0  0  0  0  0  0  0  0  0
    4.2639    1.9828    4.8297 C   0  0  0  0  0  0  0  0  0  0  0  0
    3.1680    2.1238    5.7177 C   0  0  0  0  0  0  0  0  0  0  0  0
    2.0113    2.7930    5.2980 C   0  0  0  0  0  0  0  0  0  0  0  0
    1.9477    3.3056    4.0338 C   0  0  0  0  0  0  0  0  0  0  0  0
    0.8245    3.9554    3.6276 O   0  0  0  0  0  0  0  0  0  0  0  0
   -0.2416    4.0613    4.5732 C   0  0  0  0  0  0  0  0  0  0  0  0
    3.2856    1.5754    7.0148 C   0  0  0  0  0  0  0  0  0  0  0  0
    4.4129    0.9579    7.3349 N   0  0  0  0  0  0  0  0  0  0  0  0
    5.4120    0.8494    6.4729 C   0  0  0  0  0  0  0  0  0  0  0  0
    5.3601    1.3375    5.2566 N   0  0  0  0  0  0  0  0  0  0  0  0
    2.2733    1.6788    7.9066 O   0  0  0  0  0  0  0  0  0  0  0  0
    2.4905    1.2345    9.1731 C   0  0  0  0  0  0  0  0  0  0  0  0
    1.9217    0.0418    9.5966 C   0  0  0  0  0  0  0  0  0  0  0  0
    2.1455   -0.4129   10.8811 C   0  0  0  0  0  0  0  0  0  0  0  0
    2.9310    0.3289   11.7530 C   0  0  0  0  0  0  0  0  0  0  0  0
    3.4962    1.5257   11.3305 C   0  0  0  0  0  0  0  0  0  0  0  0
    3.2760    1.9765   10.0429 C   0  0  0  0  0  0  0  0  0  0  0  0
    4.4791    2.4540   12.4195 Cl  0  0  0  0  0  0  0  0  0  0  0  0
    3.1533   -0.1292   13.0588 N   0  0  0  0  0  0  0  0  0  0  0  0
    2.9683   -1.4304   13.3572 C   0  0  0  0  0  0  0  0  0  0  0  0
    2.6990   -2.2239   12.4761 O   0  0  0  0  0  0  0  0  0  0  0  0
    3.0817   -1.8521   14.6323 N   0  0  0  0  0  0  0  0  0  0  0  0
    3.0002   -3.2200   14.9280 C   0  0  0  0  0  0  0  0  0  0  0  0
    3.2127   -4.1606   13.9300 C   0  0  0  0  0  0  0  0  0  0  0  0
    3.1319   -5.5083   14.2231 C   0  0  0  0  0  0  0  0  0  0  0  0
    2.8390   -5.9220   15.5117 C   0  0  0  0  0  0  0  0  0  0  0  0
    2.6259   -4.9866   16.5099 C   0  0  0  0  0  0  0  0  0  0  0  0
    2.7119   -3.6364   16.2227 C   0  0  0  0  0  0  0  0  0  0  0  0
    2.5100   -2.7232   17.1977 F   0  0  0  0  0  0  0  0  0  0  0  0
    2.7607   -7.2406   15.7953 F   0  0  0  0  0  0  0  0  0  0  0  0
    5.0672   10.2154   -0.6731 H   0  0  0  0  0  0  0  0  0  0  0  0
    3.5310   10.2127   -1.5722 H   0  0  0  0  0  0  0  0  0  0  0  0
    3.5270   10.0184    0.1971 H   0  0  0  0  0  0  0  0  0  0  0  0
    4.3155    7.8903    1.1670 H   0  0  0  0  0  0  0  0  0  0  0  0
    5.8653    8.1764    0.3391 H   0  0  0  0  0  0  0  0  0  0  0  0
    5.5315    5.7624    0.8562 H   0  0  0  0  0  0  0  0  0  0  0  0
    5.6118    6.0529   -0.8982 H   0  0  0  0  0  0  0  0  0  0  0  0
    3.5407    6.0598   -2.2037 H   0  0  0  0  0  0  0  0  0  0  0  0
    1.9910    5.7735   -1.3755 H   0  0  0  0  0  0  0  0  0  0  0  0
    2.2446    7.8968   -0.1384 H   0  0  0  0  0  0  0  0  0  0  0  0
    2.3248    8.1876   -1.8930 H   0  0  0  0  0  0  0  0  0  0  0  0
    4.6003    3.9243   -1.0048 H   0  0  0  0  0  0  0  0  0  0  0  0
    2.8510    3.7767   -0.7106 H   0  0  0  0  0  0  0  0  0  0  0  0
    4.2690    2.4534    0.9079 H   0  0  0  0  0  0  0  0  0  0  0  0
    4.9443    3.9914    1.4969 H   0  0  0  0  0  0  0  0  0  0  0  0
    5.0001    2.4082    2.8479 H   0  0  0  0  0  0  0  0  0  0  0  0
    1.1739    2.9034    5.9711 H   0  0  0  0  0  0  0  0  0  0  0  0
   -1.0748    4.6006    4.1226 H   0  0  0  0  0  0  0  0  0  0  0  0
   -0.5696    3.0634    4.8642 H   0  0  0  0  0  0  0  0  0  0  0  0
    0.1064    4.6007    5.4542 H   0  0  0  0  0  0  0  0  0  0  0  0
    6.3093    0.3359    6.7850 H   0  0  0  0  0  0  0  0  0  0  0  0
    1.3066   -0.5330    8.9201 H   0  0  0  0  0  0  0  0  0  0  0  0
    1.7056   -1.3431   11.2090 H   0  0  0  0  0  0  0  0  0  0  0  0
    3.7151    2.9068    9.7140 H   0  0  0  0  0  0  0  0  0  0  0  0
    3.4404    0.4904   13.7478 H   0  0  0  0  0  0  0  0  0  0  0  0
    3.2198   -1.2091   15.3453 H   0  0  0  0  0  0  0  0  0  0  0  0
    3.4415   -3.8393   12.9247 H   0  0  0  0  0  0  0  0  0  0  0  0
    3.2977   -6.2400   13.4463 H   0  0  0  0  0  0  0  0  0  0  0  0
    2.3977   -5.3113   17.5143 H   0  0  0  0  0  0  0  0  0  0  0  0
    4.1761    8.3255   -0.9052 N   0  3  0  0  0  0  0  0  0  0  0  0
    4.7137    8.1358   -1.7591 H   0  0  0  0  0  0  0  0  0  0  0  0
    3.6802    5.6245   -0.1316 N   0  3  0  0  0  0  0  0  0  0  0  0
    3.1426    5.8143    0.7224 H   0  0  0  0  0  0  0  0  0  0  0  0
  1 41  1  0  0  0  0
  1 42  1  0  0  0  0
  1 43  1  0  0  0  0
  1 70  1  0  0  0  0
  2  3  1  0  0  0  0
  2 44  1  0  0  0  0
  2 45  1  0  0  0  0
  2 70  1  0  0  0  0
  3 46  1  0  0  0  0
  3 47  1  0  0  0  0
  3 72  1  0  0  0  0
  4  5  1  0  0  0  0
  4 48  1  0  0  0  0
  4 49  1  0  0  0  0
  4 72  1  0  0  0  0
  5 50  1  0  0  0  0
  5 51  1  0  0  0  0
  5 70  1  0  0  0  0
  6  7  1  0  0  0  0
  6 52  1  0  0  0  0
  6 53  1  0  0  0  0
  6 72  1  0  0  0  0
  7  8  1  0  0  0  0
  7 54  1  0  0  0  0
  7 55  1  0  0  0  0
  8  9  1  0  0  0  0
  9 14  2  0  0  0  0
  9 10  1  0  0  0  0
 10 11  2  0  0  0  0
 10 56  1  0  0  0  0
 11 20  1  0  0  0  0
 11 12  1  0  0  0  0
 12 13  2  0  0  0  0
 12 17  1  0  0  0  0
 13 14  1  0  0  0  0
 13 57  1  0  0  0  0
 14 15  1  0  0  0  0
 15 16  1  0  0  0  0
 16 58  1  0  0  0  0
 16 59  1  0  0  0  0
 16 60  1  0  0  0  0
 17 18  2  0  0  0  0
 17 21  1  0  0  0  0
 18 19  1  0  0  0  0
 19 20  2  0  0  0  0
 19 61  1  0  0  0  0
 21 22  1  0  0  0  0
 22 27  2  0  0  0  0
 22 23  1  0  0  0  0
 23 24  2  0  0  0  0
 23 62  1  0  0  0  0
 24 25  1  0  0  0  0
 24 63  1  0  0  0  0
 25 26  2  0  0  0  0
 25 29  1  0  0  0  0
 26 27  1  0  0  0  0
 26 28  1  0  0  0  0
 27 64  1  0  0  0  0
 29 30  1  0  0  0  0
 29 65  1  0  0  0  0
 30 31  2  0  0  0  0
 30 32  1  0  0  0  0
 32 33  1  0  0  0  0
 32 66  1  0  0  0  0
 33 38  2  0  0  0  0
 33 34  1  0  0  0  0
 34 35  2  0  0  0  0
 34 67  1  0  0  0  0
 35 36  1  0  0  0  0
 35 68  1  0  0  0  0
 36 37  2  0  0  0  0
 36 40  1  0  0  0  0
 37 38  1  0  0  0  0
 37 69  1  0  0  0  0
 38 39  1  0  0  0  0
 70 71  1  0  0  0  0
 72 73  1  0  0  0  0
M  CHG  2  70   1  72   1
M  END
$$$$
ZINC03834194
  -OEChem-08230709403D

 45 47  0     0  0  0  0  0  0999 V2000
   -0.5783    4.4098   -2.2581 C   0  0  0  0  0  0  0  0  0  0  0  0
   -0.0312    3.6913   -1.1505 O   0  0  0  0  0  0  0  0  0  0  0  0
   -0.2793    2.2846   -1.1906 C   0  0  0  0  0  0  0  0  0  0  0  0
    0.3482    1.6209    0.0369 C   0  0  0  0  0  0  0  0  0  0  0  0
   -0.3078    2.0869    1.2178 O   0  0  0  0  0  0  0  0  0  0  0  0
    0.1322    1.5915    2.4042 C   0  0  0  0  0  0  0  0  0  0  0  0
    1.1580    0.6905    2.4192 C   0  0  0  0  0  0  0  0  0  0  0  0
    1.6166    0.1752    3.6427 C   0  0  0  0  0  0  0  0  0  0  0  0
    1.0031    0.6021    4.8451 C   0  0  0  0  0  0  0  0  0  0  0  0
   -0.0490    1.5282    4.8008 C   0  0  0  0  0  0  0  0  0  0  0  0
   -0.4693    2.0164    3.5971 C   0  0  0  0  0  0  0  0  0  0  0  0
   -1.4853    2.9192    3.5544 O   0  0  0  0  0  0  0  0  0  0  0  0
   -2.0567    3.3124    4.8037 C   0  0  0  0  0  0  0  0  0  0  0  0
    1.4696    0.0794    6.0743 C   0  0  0  0  0  0  0  0  0  0  0  0
    2.5133   -0.8325    6.0376 C   0  0  0  0  0  0  0  0  0  0  0  0
    3.0620   -1.2009    4.8171 C   0  0  0  0  0  0  0  0  0  0  0  0
    2.6207   -0.7095    3.6825 N   0  0  0  0  0  0  0  0  0  0  0  0
    0.9006    0.4676    7.2789 N   0  0  0  0  0  0  0  0  0  0  0  0
   -0.3752    0.0123    7.6289 C   0  0  0  0  0  0  0  0  0  0  0  0
   -1.0261   -0.9155    6.8274 C   0  0  0  0  0  0  0  0  0  0  0  0
   -2.2897   -1.3645    7.1766 C   0  0  0  0  0  0  0  0  0  0  0  0
   -2.9029   -0.8864    8.3269 C   0  0  0  0  0  0  0  0  0  0  0  0
   -2.2544    0.0384    9.1252 C   0  0  0  0  0  0  0  0  0  0  0  0
   -0.9906    0.4843    8.7833 C   0  0  0  0  0  0  0  0  0  0  0  0
   -0.3564    1.3831    9.5677 F   0  0  0  0  0  0  0  0  0  0  0  0
   -4.4859   -1.4496    8.7634 Cl  0  0  0  0  0  0  0  0  0  0  0  0
   -2.9288   -2.2735    6.3931 O   0  0  0  0  0  0  0  0  0  0  0  0
   -0.3470    5.4698   -2.1535 H   0  0  0  0  0  0  0  0  0  0  0  0
   -0.1456    4.0332   -3.1849 H   0  0  0  0  0  0  0  0  0  0  0  0
   -1.6596    4.2744   -2.2806 H   0  0  0  0  0  0  0  0  0  0  0  0
    0.1597    1.8639   -2.0953 H   0  0  0  0  0  0  0  0  0  0  0  0
   -1.3544    2.1051   -1.1910 H   0  0  0  0  0  0  0  0  0  0  0  0
    0.2364    0.5392   -0.0380 H   0  0  0  0  0  0  0  0  0  0  0  0
    1.4072    1.8743    0.0854 H   0  0  0  0  0  0  0  0  0  0  0  0
    1.6151    0.3748    1.4931 H   0  0  0  0  0  0  0  0  0  0  0  0
   -0.5208    1.8576    5.7147 H   0  0  0  0  0  0  0  0  0  0  0  0
   -1.2874    3.7666    5.4282 H   0  0  0  0  0  0  0  0  0  0  0  0
   -2.8543    4.0341    4.6274 H   0  0  0  0  0  0  0  0  0  0  0  0
   -2.4643    2.4366    5.3085 H   0  0  0  0  0  0  0  0  0  0  0  0
    2.8979   -1.2540    6.9546 H   0  0  0  0  0  0  0  0  0  0  0  0
    3.8745   -1.9123    4.8002 H   0  0  0  0  0  0  0  0  0  0  0  0
    1.3874    1.0546    7.8784 H   0  0  0  0  0  0  0  0  0  0  0  0
   -0.5485   -1.2866    5.9326 H   0  0  0  0  0  0  0  0  0  0  0  0
   -2.7335    0.4091   10.0193 H   0  0  0  0  0  0  0  0  0  0  0  0
   -2.7513   -3.1933    6.6330 H   0  0  0  0  0  0  0  0  0  0  0  0
  1  2  1  0  0  0  0
  1 28  1  0  0  0  0
  1 29  1  0  0  0  0
  1 30  1  0  0  0  0
  2  3  1  0  0  0  0
  3  4  1  0  0  0  0
  3 31  1  0  0  0  0
  3 32  1  0  0  0  0
  4  5  1  0  0  0  0
  4 33  1  0  0  0  0
  4 34  1  0  0  0  0
  5  6  1  0  0  0  0
  6 11  2  0  0  0  0
  6  7  1  0  0  0  0
  7  8  2  0  0  0  0
  7 35  1  0  0  0  0
  8 17  1  0  0  0  0
  8  9  1  0  0  0  0
  9 10  2  0  0  0  0
  9 14  1  0  0  0  0
 10 11  1  0  0  0  0
 10 36  1  0  0  0  0
 11 12  1  0  0  0  0
 12 13  1  0  0  0  0
 13 37  1  0  0  0  0
 13 38  1  0  0  0  0
 13 39  1  0  0  0  0
 14 15  2  0  0  0  0
 14 18  1  0  0  0  0
 15 16  1  0  0  0  0
 15 40  1  0  0  0  0
 16 17  2  0  0  0  0
 16 41  1  0  0  0  0
 18 19  1  0  0  0  0
 18 42  1  0  0  0  0
 19 24  2  0  0  0  0
 19 20  1  0  0  0  0
 20 21  2  0  0  0  0
 20 43  1  0  0  0  0
 21 22  1  0  0  0  0
 21 27  1  0  0  0  0
 22 23  2  0  0  0  0
 22 26  1  0  0  0  0
 23 24  1  0  0  0  0
 23 44  1  0  0  0  0
 24 25  1  0  0  0  0
 27 45  1  0  0  0  0
M  END
$$$$
ZINC03834195
  -OEChem-08230709403D

 40 42  0     0  0  0  0  0  0999 V2000
   -0.3487    1.4425    0.1220 C   0  0  0  0  0  0  0  0  0  0  0  0
   -0.9026    1.5351    1.5204 C   0  0  0  0  0  0  0  0  0  0  0  0
   -2.2510    1.5163    1.8819 C   0  0  0  0  0  0  0  0  0  0  0  0
   -2.3234    1.6184    3.2325 C   0  0  0  0  0  0  0  0  0  0  0  0
   -1.0668    1.7107    3.7359 N   0  0  0  0  0  0  0  0  0  0  0  0
   -0.8381    1.7971    4.6746 H   0  0  0  0  0  0  0  0  0  0  0  0
   -0.1697    1.6610    2.6906 C   0  0  0  0  0  0  0  0  0  0  0  0
    1.2352    1.7263    2.7926 C   0  0  0  0  0  0  0  0  0  0  0  0
    1.8237    2.6210    3.6659 C   0  0  0  0  0  0  0  0  0  0  0  0
    1.1600    3.6967    4.4351 C   0  0  0  0  0  0  0  0  0  0  0  0
   -0.1593    4.1285    4.5279 C   0  0  0  0  0  0  0  0  0  0  0  0
   -0.4763    5.1868    5.3549 C   0  0  0  0  0  0  0  0  0  0  0  0
    0.5157    5.8162    6.0888 C   0  0  0  0  0  0  0  0  0  0  0  0
    1.8274    5.3960    6.0035 C   0  0  0  0  0  0  0  0  0  0  0  0
    2.1665    4.3310    5.1761 C   0  0  0  0  0  0  0  0  0  0  0  0
    3.3842    3.7172    4.9097 N   0  0  0  0  0  0  0  0  0  0  0  0
    3.2422    2.7058    4.0363 C   0  0  0  0  0  0  0  0  0  0  0  0
    4.1345    1.9871    3.6221 O   0  0  0  0  0  0  0  0  0  0  0  0
   -3.5942    1.6340    4.0423 C   0  0  0  0  0  0  0  0  0  0  0  0
   -3.4199    1.3992    0.9381 C   0  0  0  0  0  0  0  0  0  0  0  0
   -3.7646   -0.0774    0.7339 C   0  0  0  0  0  0  0  0  0  0  0  0
   -4.9336   -0.1945   -0.2099 C   0  0  0  0  0  0  0  0  0  0  0  0
   -5.4391    0.8010   -0.6719 O   0  0  0  0  0  0  0  0  0  0  0  0
   -0.1741    0.3968   -0.1312 H   0  0  0  0  0  0  0  0  0  0  0  0
    0.5913    1.9916    0.0664 H   0  0  0  0  0  0  0  0  0  0  0  0
   -1.0626    1.8722   -0.5808 H   0  0  0  0  0  0  0  0  0  0  0  0
    1.8513    1.0771    2.1881 H   0  0  0  0  0  0  0  0  0  0  0  0
   -0.9321    3.6375    3.9551 H   0  0  0  0  0  0  0  0  0  0  0  0
   -1.4992    5.5250    5.4298 H   0  0  0  0  0  0  0  0  0  0  0  0
    0.2602    6.6440    6.7336 H   0  0  0  0  0  0  0  0  0  0  0  0
    2.5918    5.8948    6.5807 H   0  0  0  0  0  0  0  0  0  0  0  0
    4.2285    3.9822    5.3070 H   0  0  0  0  0  0  0  0  0  0  0  0
   -3.9417    2.6611    4.1534 H   0  0  0  0  0  0  0  0  0  0  0  0
   -4.3571    1.0455    3.5326 H   0  0  0  0  0  0  0  0  0  0  0  0
   -3.4031    1.2066    5.0267 H   0  0  0  0  0  0  0  0  0  0  0  0
   -4.2807    1.9184    1.3596 H   0  0  0  0  0  0  0  0  0  0  0  0
   -3.1591    1.8474   -0.0207 H   0  0  0  0  0  0  0  0  0  0  0  0
   -2.9039   -0.5965    0.3124 H   0  0  0  0  0  0  0  0  0  0  0  0
   -4.0255   -0.5255    1.6927 H   0  0  0  0  0  0  0  0  0  0  0  0
   -5.4132   -1.4046   -0.5374 O   0  5  0  0  0  0  0  0  0  0  0  0
  1  2  1  0  0  0  0
  1 24  1  0  0  0  0
  1 25  1  0  0  0  0
  1 26  1  0  0  0  0
  2  7  2  0  0  0  0
  2  3  1  0  0  0  0
  3  4  2  0  0  0  0
  3 20  1  0  0  0  0
  4  5  1  0  0  0  0
  4 19  1  0  0  0  0
  5  6  1  0  0  0  0
  5  7  1  0  0  0  0
  7  8  1  0  0  0  0
  8  9  2  0  0  0  0
  8 27  1  0  0  0  0
  9 17  1  0  0  0  0
  9 10  1  0  0  0  0
 10 15  2  0  0  0  0
 10 11  1  0  0  0  0
 11 12  2  0  0  0  0
 11 28  1  0  0  0  0
 12 13  1  0  0  0  0
 12 29  1  0  0  0  0
 13 14  2  0  0  0  0
 13 30  1  0  0  0  0
 14 15  1  0  0  0  0
 14 31  1  0  0  0  0
 15 16  1  0  0  0  0
 16 17  1  0  0  0  0
 16 32  1  0  0  0  0
 17 18  2  0  0  0  0
 19 33  1  0  0  0  0
 19 34  1  0  0  0  0
 19 35  1  0  0  0  0
 20 21  1  0  0  0  0
 20 36  1  0  0  0  0
 20 37  1  0  0  0  0
 21 22  1  0  0  0  0
 21 38  1  0  0  0  0
 21 39  1  0  0  0  0
 22 23  2  0  0  0  0
 22 40  1  0  0  0  0
M  CHG  1  40  -1
M  END
$$$$
ZINC03834196
  -OEChem-08230709403D

 48 51  0     0  0  0  0  0  0999 V2000
   -0.2094    7.8646    0.3478 C   0  0  0  0  0  0  0  0  0  0  0  0
    1.0270    7.2312    0.6829 O   0  0  0  0  0  0  0  0  0  0  0  0
    1.0236    5.8737    0.7619 C   0  0  0  0  0  0  0  0  0  0  0  0
   -0.1325    5.1860    0.5240 C   0  0  0  0  0  0  0  0  0  0  0  0
   -0.1371    3.7885    0.6051 C   0  0  0  0  0  0  0  0  0  0  0  0
    1.0548    3.0959    0.9329 C   0  0  0  0  0  0  0  0  0  0  0  0
    2.2283    3.8208    1.1729 C   0  0  0  0  0  0  0  0  0  0  0  0
    2.2064    5.1954    1.0872 C   0  0  0  0  0  0  0  0  0  0  0  0
    3.3435    5.9013    1.3200 O   0  0  0  0  0  0  0  0  0  0  0  0
    4.5162    5.1530    1.6469 C   0  0  0  0  0  0  0  0  0  0  0  0
    5.6867    6.1120    1.8729 C   0  0  0  0  0  0  0  0  0  0  0  0
    6.9422    5.3108    2.2229 C   0  0  0  0  0  0  0  0  0  0  0  0
    8.0630    6.2292    2.4393 N   0  0  0  0  0  0  0  0  0  0  0  0
    8.8331    6.2924    3.5501 C   0  0  0  0  0  0  0  0  0  0  0  0
    9.7413    7.2702    3.3241 C   0  0  0  0  0  0  0  0  0  0  0  0
    9.4808    7.7562    2.1053 N   0  0  0  0  0  0  0  0  0  0  0  0
    8.4808    7.1183    1.6076 N   0  0  0  0  0  0  0  0  0  0  0  0
    1.0230    1.7558    1.0037 N   0  0  0  0  0  0  0  0  0  0  0  0
   -0.0917    1.1038    0.7731 C   0  0  0  0  0  0  0  0  0  0  0  0
   -1.2268    1.7075    0.4590 N   0  0  0  0  0  0  0  0  0  0  0  0
   -1.3072    3.0286    0.3675 C   0  0  0  0  0  0  0  0  0  0  0  0
   -2.4990    3.6452    0.0441 N   0  0  0  0  0  0  0  0  0  0  0  0
   -3.6733    2.8902   -0.0543 C   0  0  0  0  0  0  0  0  0  0  0  0
   -3.7434    1.6333    0.5312 C   0  0  0  0  0  0  0  0  0  0  0  0
   -4.9038    0.8903    0.4331 C   0  0  0  0  0  0  0  0  0  0  0  0
   -5.9967    1.3969   -0.2476 C   0  0  0  0  0  0  0  0  0  0  0  0
   -5.9314    2.6488   -0.8331 C   0  0  0  0  0  0  0  0  0  0  0  0
   -4.7745    3.3998   -0.7340 C   0  0  0  0  0  0  0  0  0  0  0  0
   -4.7124    4.6247   -1.3005 F   0  0  0  0  0  0  0  0  0  0  0  0
   -7.5830    0.3758   -0.3784 Br  0  0  0  0  0  0  0  0  0  0  0  0
   -0.0678    8.9450    0.3183 H   0  0  0  0  0  0  0  0  0  0  0  0
   -0.5436    7.5152   -0.6291 H   0  0  0  0  0  0  0  0  0  0  0  0
   -0.9597    7.6168    1.0986 H   0  0  0  0  0  0  0  0  0  0  0  0
   -1.0386    5.7180    0.2741 H   0  0  0  0  0  0  0  0  0  0  0  0
    3.1439    3.3060    1.4241 H   0  0  0  0  0  0  0  0  0  0  0  0
    4.3381    4.5768    2.5549 H   0  0  0  0  0  0  0  0  0  0  0  0
    4.7549    4.4751    0.8274 H   0  0  0  0  0  0  0  0  0  0  0  0
    5.8648    6.6882    0.9649 H   0  0  0  0  0  0  0  0  0  0  0  0
    5.4480    6.7899    2.6924 H   0  0  0  0  0  0  0  0  0  0  0  0
    6.7642    4.7346    3.1309 H   0  0  0  0  0  0  0  0  0  0  0  0
    7.1809    4.6330    1.4034 H   0  0  0  0  0  0  0  0  0  0  0  0
    8.7426    5.6837    4.4376 H   0  0  0  0  0  0  0  0  0  0  0  0
   10.5205    7.5965    3.9970 H   0  0  0  0  0  0  0  0  0  0  0  0
   -0.0816    0.0258    0.8382 H   0  0  0  0  0  0  0  0  0  0  0  0
   -2.5226    4.6018   -0.1149 H   0  0  0  0  0  0  0  0  0  0  0  0
   -2.8914    1.2369    1.0634 H   0  0  0  0  0  0  0  0  0  0  0  0
   -4.9582   -0.0874    0.8886 H   0  0  0  0  0  0  0  0  0  0  0  0
   -6.7860    3.0415   -1.3641 H   0  0  0  0  0  0  0  0  0  0  0  0
  1  2  1  0  0  0  0
  1 31  1  0  0  0  0
  1 32  1  0  0  0  0
  1 33  1  0  0  0  0
  2  3  1  0  0  0  0
  3  8  2  0  0  0  0
  3  4  1  0  0  0  0
  4  5  2  0  0  0  0
  4 34  1  0  0  0  0
  5 21  1  0  0  0  0
  5  6  1  0  0  0  0
  6  7  2  0  0  0  0
  6 18  1  0  0  0  0
  7  8  1  0  0  0  0
  7 35  1  0  0  0  0
  8  9  1  0  0  0  0
  9 10  1  0  0  0  0
 10 11  1  0  0  0  0
 10 36  1  0  0  0  0
 10 37  1  0  0  0  0
 11 12  1  0  0  0  0
 11 38  1  0  0  0  0
 11 39  1  0  0  0  0
 12 13  1  0  0  0  0
 12 40  1  0  0  0  0
 12 41  1  0  0  0  0
 13 17  1  0  0  0  0
 13 14  1  0  0  0  0
 14 15  2  0  0  0  0
 14 42  1  0  0  0  0
 15 16  1  0  0  0  0
 15 43  1  0  0  0  0
 16 17  2  0  0  0  0
 18 19  2  0  0  0  0
 19 20  1  0  0  0  0
 19 44  1  0  0  0  0
 20 21  2  0  0  0  0
 21 22  1  0  0  0  0
 22 23  1  0  0  0  0
 22 45  1  0  0  0  0
 23 28  2  0  0  0  0
 23 24  1  0  0  0  0
 24 25  2  0  0  0  0
 24 46  1  0  0  0  0
 25 26  1  0  0  0  0
 25 47  1  0  0  0  0
 26 27  2  0  0  0  0
 26 30  1  0  0  0  0
 27 28  1  0  0  0  0
 27 48  1  0  0  0  0
 28 29  1  0  0  0  0
M  END
$$$$
ZINC03834197
  -OEChem-08230709403D

 54 58  0     0  0  0  0  0  0999 V2000
   -4.7656    6.6389    2.8004 C   0  0  0  0  0  0  0  0  0  0  0  0
   -5.3564    7.6735    3.4953 C   0  0  0  0  0  0  0  0  0  0  0  0
   -4.7177    8.2250    4.5975 C   0  0  0  0  0  0  0  0  0  0  0  0
   -3.4852    7.7344    5.0064 C   0  0  0  0  0  0  0  0  0  0  0  0
   -2.8917    6.6967    4.3183 C   0  0  0  0  0  0  0  0  0  0  0  0
   -3.5307    6.1407    3.2117 C   0  0  0  0  0  0  0  0  0  0  0  0
   -2.8946    5.0245    2.4689 C   0  0  0  0  0  0  0  0  0  0  0  0
   -1.6407    4.5176    2.8762 C   0  0  0  0  0  0  0  0  0  0  0  0
   -1.0839    3.5310    2.2163 N   0  0  0  0  0  0  0  0  0  0  0  0
   -1.6881    2.9833    1.1558 C   0  0  0  0  0  0  0  0  0  0  0  0
   -1.3184    1.9489    0.2893 C   0  0  0  0  0  0  0  0  0  0  0  0
   -2.3411    1.8099   -0.6524 C   0  0  0  0  0  0  0  0  0  0  0  0
   -3.2766    2.6946   -0.3975 N   0  0  0  0  0  0  0  0  0  0  0  0
   -2.9039    3.4481    0.7212 N   0  0  0  0  0  0  0  0  0  0  0  0
   -3.5148    4.4742    1.3830 C   0  0  0  0  0  0  0  0  0  0  0  0
   -0.0733    1.1440    0.3609 C   0  0  0  0  0  0  0  0  0  0  0  0
   -0.1221   -0.2459    0.3252 C   0  0  0  0  0  0  0  0  0  0  0  0
    1.0346   -0.9448    0.3873 C   0  0  0  0  0  0  0  0  0  0  0  0
    2.2546    0.3530    0.5002 S   0  0  0  0  0  0  0  0  0  0  0  0
    1.1464    1.7517    0.4577 C   0  0  0  0  0  0  0  0  0  0  0  0
   -5.3000    9.2474    5.2773 O   0  0  0  0  0  0  0  0  0  0  0  0
   -6.5684    9.7032    4.8023 C   0  0  0  0  0  0  0  0  0  0  0  0
   -7.0624   10.8495    5.6871 C   0  0  0  0  0  0  0  0  0  0  0  0
   -6.2964   12.9174    6.6859 C   0  0  0  0  0  0  0  0  0  0  0  0
   -5.2433   14.0228    6.5812 C   0  0  0  0  0  0  0  0  0  0  0  0
   -5.4351   14.7809    5.2648 C   0  0  0  0  0  0  0  0  0  0  0  0
   -5.3360   13.7945    4.0978 C   0  0  0  0  0  0  0  0  0  0  0  0
   -6.3865   12.6956    4.2745 C   0  0  0  0  0  0  0  0  0  0  0  0
   -5.2610    6.2129    1.9404 H   0  0  0  0  0  0  0  0  0  0  0  0
   -6.3153    8.0572    3.1794 H   0  0  0  0  0  0  0  0  0  0  0  0
   -2.9906    8.1654    5.8643 H   0  0  0  0  0  0  0  0  0  0  0  0
   -1.9326    6.3157    4.6367 H   0  0  0  0  0  0  0  0  0  0  0  0
   -1.1395    4.9438    3.7327 H   0  0  0  0  0  0  0  0  0  0  0  0
   -2.3591    1.0916   -1.4587 H   0  0  0  0  0  0  0  0  0  0  0  0
   -4.4737    4.8455    1.0529 H   0  0  0  0  0  0  0  0  0  0  0  0
   -1.0691   -0.7593    0.2487 H   0  0  0  0  0  0  0  0  0  0  0  0
    1.1821   -2.0146    0.3723 H   0  0  0  0  0  0  0  0  0  0  0  0
    1.3797    2.8054    0.4984 H   0  0  0  0  0  0  0  0  0  0  0  0
   -6.4670   10.0544    3.7755 H   0  0  0  0  0  0  0  0  0  0  0  0
   -7.2853    8.8828    4.8366 H   0  0  0  0  0  0  0  0  0  0  0  0
   -8.0680   11.1376    5.3806 H   0  0  0  0  0  0  0  0  0  0  0  0
   -7.0788   10.5245    6.7274 H   0  0  0  0  0  0  0  0  0  0  0  0
   -7.2916   13.3618    6.6765 H   0  0  0  0  0  0  0  0  0  0  0  0
   -6.1535   12.3665    7.6156 H   0  0  0  0  0  0  0  0  0  0  0  0
   -4.2475   13.5802    6.6045 H   0  0  0  0  0  0  0  0  0  0  0  0
   -5.3545   14.7126    7.4179 H   0  0  0  0  0  0  0  0  0  0  0  0
   -4.6603   15.5411    5.1659 H   0  0  0  0  0  0  0  0  0  0  0  0
   -6.4157   15.2569    5.2571 H   0  0  0  0  0  0  0  0  0  0  0  0
   -4.3417   13.3482    4.0820 H   0  0  0  0  0  0  0  0  0  0  0  0
   -5.5142   14.3209    3.1602 H   0  0  0  0  0  0  0  0  0  0  0  0
   -6.3091   11.9837    3.4527 H   0  0  0  0  0  0  0  0  0  0  0  0
   -7.3812   13.1413    4.2764 H   0  0  0  0  0  0  0  0  0  0  0  0
   -6.1317   11.9885    5.5475 N   0  3  0  0  0  0  0  0  0  0  0  0
   -5.1683   11.6334    5.5441 H   0  0  0  0  0  0  0  0  0  0  0  0
  1  6  2  0  0  0  0
  1  2  1  0  0  0  0
  1 29  1  0  0  0  0
  2  3  2  0  0  0  0
  2 30  1  0  0  0  0
  3  4  1  0  0  0  0
  3 21  1  0  0  0  0
  4  5  2  0  0  0  0
  4 31  1  0  0  0  0
  5  6  1  0  0  0  0
  5 32  1  0  0  0  0
  6  7  1  0  0  0  0
  7 15  2  0  0  0  0
  7  8  1  0  0  0  0
  8  9  2  0  0  0  0
  8 33  1  0  0  0  0
  9 10  1  0  0  0  0
 10 14  1  0  0  0  0
 10 11  2  0  0  0  0
 11 12  1  0  0  0  0
 11 16  1  0  0  0  0
 12 13  2  0  0  0  0
 12 34  1  0  0  0  0
 13 14  1  0  0  0  0
 14 15  1  0  0  0  0
 15 35  1  0  0  0  0
 16 20  2  0  0  0  0
 16 17  1  0  0  0  0
 17 18  2  0  0  0  0
 17 36  1  0  0  0  0
 18 19  1  0  0  0  0
 18 37  1  0  0  0  0
 19 20  1  0  0  0  0
 20 38  1  0  0  0  0
 21 22  1  0  0  0  0
 22 23  1  0  0  0  0
 22 39  1  0  0  0  0
 22 40  1  0  0  0  0
 23 41  1  0  0  0  0
 23 42  1  0  0  0  0
 23 53  1  0  0  0  0
 24 25  1  0  0  0  0
 24 43  1  0  0  0  0
 24 44  1  0  0  0  0
 24 53  1  0  0  0  0
 25 26  1  0  0  0  0
 25 45  1  0  0  0  0
 25 46  1  0  0  0  0
 26 27  1  0  0  0  0
 26 47  1  0  0  0  0
 26 48  1  0  0  0  0
 27 28  1  0  0  0  0
 27 49  1  0  0  0  0
 27 50  1  0  0  0  0
 28 51  1  0  0  0  0
 28 52  1  0  0  0  0
 28 53  1  0  0  0  0
 53 54  1  0  0  0  0
M  CHG  1  53   1
M  END
$$$$
ZINC03834198
  -OEChem-08230709403D

 55 58  0     0  0  0  0  0  0999 V2000
    9.5937    7.7564    1.3128 C   0  0  0  0  0  0  0  0  0  0  0  0
    8.0955    6.2784    2.5093 C   0  0  0  0  0  0  0  0  0  0  0  0
    6.9116    5.3228    2.3439 C   0  0  0  0  0  0  0  0  0  0  0  0
    5.6868    6.1121    1.8735 C   0  0  0  0  0  0  0  0  0  0  0  0
    6.0229    6.8268    0.5617 C   0  0  0  0  0  0  0  0  0  0  0  0
    7.2325    7.7387    0.7787 C   0  0  0  0  0  0  0  0  0  0  0  0
    4.5162    5.1530    1.6478 C   0  0  0  0  0  0  0  0  0  0  0  0
    3.3433    5.9014    1.3218 O   0  0  0  0  0  0  0  0  0  0  0  0
    2.2061    5.1955    1.0895 C   0  0  0  0  0  0  0  0  0  0  0  0
    2.2280    3.8209    1.1751 C   0  0  0  0  0  0  0  0  0  0  0  0
    1.0547    3.0959    0.9342 C   0  0  0  0  0  0  0  0  0  0  0  0
   -0.1372    3.7886    0.6064 C   0  0  0  0  0  0  0  0  0  0  0  0
   -0.1329    5.1862    0.5262 C   0  0  0  0  0  0  0  0  0  0  0  0
    1.0231    5.8738    0.7651 C   0  0  0  0  0  0  0  0  0  0  0  0
    1.0262    7.2314    0.6870 O   0  0  0  0  0  0  0  0  0  0  0  0
   -0.2102    7.8648    0.3519 C   0  0  0  0  0  0  0  0  0  0  0  0
   -1.3073    3.0286    0.3688 C   0  0  0  0  0  0  0  0  0  0  0  0
   -1.2268    1.7075    0.4599 N   0  0  0  0  0  0  0  0  0  0  0  0
   -0.0917    1.1039    0.7744 C   0  0  0  0  0  0  0  0  0  0  0  0
    1.0230    1.7558    1.0049 N   0  0  0  0  0  0  0  0  0  0  0  0
   -2.4990    3.6452    0.0450 N   0  0  0  0  0  0  0  0  0  0  0  0
   -3.6733    2.8902   -0.0535 C   0  0  0  0  0  0  0  0  0  0  0  0
   -3.7434    1.6333    0.5320 C   0  0  0  0  0  0  0  0  0  0  0  0
   -4.9038    0.8903    0.4338 C   0  0  0  0  0  0  0  0  0  0  0  0
   -5.9967    1.3969   -0.2469 C   0  0  0  0  0  0  0  0  0  0  0  0
   -5.9314    2.6488   -0.8323 C   0  0  0  0  0  0  0  0  0  0  0  0
   -4.7745    3.3999   -0.7331 C   0  0  0  0  0  0  0  0  0  0  0  0
   -4.7124    4.6249   -1.2995 F   0  0  0  0  0  0  0  0  0  0  0  0
   -7.5830    0.3759   -0.3778 Br  0  0  0  0  0  0  0  0  0  0  0  0
   10.4413    7.1230    1.5747 H   0  0  0  0  0  0  0  0  0  0  0  0
    9.7795    8.2323    0.3500 H   0  0  0  0  0  0  0  0  0  0  0  0
    9.4624    8.5221    2.0773 H   0  0  0  0  0  0  0  0  0  0  0  0
    7.8522    7.0318    3.2584 H   0  0  0  0  0  0  0  0  0  0  0  0
    8.9730    5.7172    2.8304 H   0  0  0  0  0  0  0  0  0  0  0  0
    6.6924    4.8462    3.2994 H   0  0  0  0  0  0  0  0  0  0  0  0
    7.1590    4.5604    1.6052 H   0  0  0  0  0  0  0  0  0  0  0  0
    5.4144    6.8475    2.6306 H   0  0  0  0  0  0  0  0  0  0  0  0
    6.2567    6.0885   -0.2054 H   0  0  0  0  0  0  0  0  0  0  0  0
    5.1688    7.4247    0.2438 H   0  0  0  0  0  0  0  0  0  0  0  0
    6.9933    8.4853    1.5359 H   0  0  0  0  0  0  0  0  0  0  0  0
    7.4833    8.2382   -0.1571 H   0  0  0  0  0  0  0  0  0  0  0  0
    4.3387    4.5765    2.5557 H   0  0  0  0  0  0  0  0  0  0  0  0
    4.7545    4.4755    0.8279 H   0  0  0  0  0  0  0  0  0  0  0  0
    3.1436    3.3061    1.4263 H   0  0  0  0  0  0  0  0  0  0  0  0
   -1.0389    5.7181    0.2763 H   0  0  0  0  0  0  0  0  0  0  0  0
   -0.5440    7.5160   -0.6253 H   0  0  0  0  0  0  0  0  0  0  0  0
   -0.9607    7.6164    1.1022 H   0  0  0  0  0  0  0  0  0  0  0  0
   -0.0688    8.9452    0.3232 H   0  0  0  0  0  0  0  0  0  0  0  0
   -0.0817    0.0259    0.8398 H   0  0  0  0  0  0  0  0  0  0  0  0
   -2.5225    4.6017   -0.1142 H   0  0  0  0  0  0  0  0  0  0  0  0
   -2.8914    1.2368    1.0642 H   0  0  0  0  0  0  0  0  0  0  0  0
   -4.9582   -0.0874    0.8893 H   0  0  0  0  0  0  0  0  0  0  0  0
   -6.7859    3.0416   -1.3633 H   0  0  0  0  0  0  0  0  0  0  0  0
    8.3835    6.9153    1.2067 N   0  3  0  0  0  0  0  0  0  0  0  0
    8.5473    6.1823    0.5066 H   0  0  0  0  0  0  0  0  0  0  0  0
  1 30  1  0  0  0  0
  1 31  1  0  0  0  0
  1 32  1  0  0  0  0
  1 54  1  0  0  0  0
  2  3  1  0  0  0  0
  2 33  1  0  0  0  0
  2 34  1  0  0  0  0
  2 54  1  0  0  0  0
  3  4  1  0  0  0  0
  3 35  1  0  0  0  0
  3 36  1  0  0  0  0
  4  5  1  0  0  0  0
  4  7  1  0  0  0  0
  4 37  1  0  0  0  0
  5  6  1  0  0  0  0
  5 38  1  0  0  0  0
  5 39  1  0  0  0  0
  6 40  1  0  0  0  0
  6 41  1  0  0  0  0
  6 54  1  0  0  0  0
  7  8  1  0  0  0  0
  7 42  1  0  0  0  0
  7 43  1  0  0  0  0
  8  9  1  0  0  0  0
  9 14  2  0  0  0  0
  9 10  1  0  0  0  0
 10 11  2  0  0  0  0
 10 44  1  0  0  0  0
 11 20  1  0  0  0  0
 11 12  1  0  0  0  0
 12 13  2  0  0  0  0
 12 17  1  0  0  0  0
 13 14  1  0  0  0  0
 13 45  1  0  0  0  0
 14 15  1  0  0  0  0
 15 16  1  0  0  0  0
 16 46  1  0  0  0  0
 16 47  1  0  0  0  0
 16 48  1  0  0  0  0
 17 18  2  0  0  0  0
 17 21  1  0  0  0  0
 18 19  1  0  0  0  0
 19 20  2  0  0  0  0
 19 49  1  0  0  0  0
 21 22  1  0  0  0  0
 21 50  1  0  0  0  0
 22 27  2  0  0  0  0
 22 23  1  0  0  0  0
 23 24  2  0  0  0  0
 23 51  1  0  0  0  0
 24 25  1  0  0  0  0
 24 52  1  0  0  0  0
 25 26  2  0  0  0  0
 25 29  1  0  0  0  0
 26 27  1  0  0  0  0
 26 53  1  0  0  0  0
 27 28  1  0  0  0  0
 54 55  1  0  0  0  0
M  CHG  1  54   1
M  END
$$$$
ZINC03834199
  -OEChem-08230709403D

 59 62  0     0  0  0  0  0  0999 V2000
    2.0647    3.9971   -4.7711 C   0  0  0  0  0  0  0  0  0  0  0  0
    0.8510    3.2428   -4.7703 O   0  0  0  0  0  0  0  0  0  0  0  0
    0.3584    2.8672   -3.5597 C   0  0  0  0  0  0  0  0  0  0  0  0
    1.0250    3.2160   -2.4205 C   0  0  0  0  0  0  0  0  0  0  0  0
    0.5194    2.8301   -1.1705 C   0  0  0  0  0  0  0  0  0  0  0  0
   -0.6797    2.0810   -1.0938 C   0  0  0  0  0  0  0  0  0  0  0  0
   -1.3465    1.7347   -2.2788 C   0  0  0  0  0  0  0  0  0  0  0  0
   -0.8290    2.1254   -3.4930 C   0  0  0  0  0  0  0  0  0  0  0  0
   -1.4764    1.7889   -4.6390 O   0  0  0  0  0  0  0  0  0  0  0  0
   -2.6816    1.0329   -4.5052 C   0  0  0  0  0  0  0  0  0  0  0  0
   -3.2634    0.7509   -5.8919 C   0  0  0  0  0  0  0  0  0  0  0  0
   -4.5537   -0.0586   -5.7487 C   0  0  0  0  0  0  0  0  0  0  0  0
   -5.5569    0.9134   -7.7276 C   0  0  0  0  0  0  0  0  0  0  0  0
   -6.0753    0.5934   -9.1321 C   0  0  0  0  0  0  0  0  0  0  0  0
   -7.1246   -0.3738   -9.0387 O   0  0  0  0  0  0  0  0  0  0  0  0
   -6.7262   -1.5969   -8.4137 C   0  0  0  0  0  0  0  0  0  0  0  0
   -6.2144   -1.2992   -7.0018 C   0  0  0  0  0  0  0  0  0  0  0  0
   -1.1662    1.7050    0.0983 N   0  0  0  0  0  0  0  0  0  0  0  0
   -0.5699    2.0171    1.2205 C   0  0  0  0  0  0  0  0  0  0  0  0
    0.6234    2.7571    1.2388 C   0  0  0  0  0  0  0  0  0  0  0  0
    1.1892    3.1777    0.0256 C   0  0  0  0  0  0  0  0  0  0  0  0
    2.3607    3.9072    0.0004 N   0  0  0  0  0  0  0  0  0  0  0  0
    3.5817    3.2622   -0.2242 C   0  0  0  0  0  0  0  0  0  0  0  0
    3.6059    1.9114   -0.5428 C   0  0  0  0  0  0  0  0  0  0  0  0
    4.8167    1.2755   -0.7652 C   0  0  0  0  0  0  0  0  0  0  0  0
    6.0037    1.9894   -0.6692 C   0  0  0  0  0  0  0  0  0  0  0  0
    5.9795    3.3355   -0.3522 C   0  0  0  0  0  0  0  0  0  0  0  0
    4.7727    3.9749   -0.1342 C   0  0  0  0  0  0  0  0  0  0  0  0
    4.7509    5.2910    0.1703 F   0  0  0  0  0  0  0  0  0  0  0  0
    7.5201    1.1917   -0.9480 Cl  0  0  0  0  0  0  0  0  0  0  0  0
    4.8425   -0.0477   -1.0770 O   0  0  0  0  0  0  0  0  0  0  0  0
    1.2563    3.0786    2.4824 C   0  0  0  0  0  0  0  0  0  0  0  0
    1.7585    3.3337    3.4690 N   0  0  0  0  0  0  0  0  0  0  0  0
    1.9176    4.9228   -4.2148 H   0  0  0  0  0  0  0  0  0  0  0  0
    2.8560    3.4128   -4.3015 H   0  0  0  0  0  0  0  0  0  0  0  0
    2.3464    4.2311   -5.7978 H   0  0  0  0  0  0  0  0  0  0  0  0
    1.9395    3.7873   -2.4816 H   0  0  0  0  0  0  0  0  0  0  0  0
   -2.2625    1.1640   -2.2384 H   0  0  0  0  0  0  0  0  0  0  0  0
   -2.4651    0.0898   -4.0034 H   0  0  0  0  0  0  0  0  0  0  0  0
   -3.4030    1.6001   -3.9170 H   0  0  0  0  0  0  0  0  0  0  0  0
   -3.4799    1.6939   -6.3937 H   0  0  0  0  0  0  0  0  0  0  0  0
   -2.5420    0.1836   -6.4800 H   0  0  0  0  0  0  0  0  0  0  0  0
   -4.3372   -1.0017   -5.2468 H   0  0  0  0  0  0  0  0  0  0  0  0
   -5.2751    0.5086   -5.1605 H   0  0  0  0  0  0  0  0  0  0  0  0
   -6.3554    1.3649   -7.1389 H   0  0  0  0  0  0  0  0  0  0  0  0
   -4.7190    1.6070   -7.7981 H   0  0  0  0  0  0  0  0  0  0  0  0
   -5.2627    0.1915   -9.7373 H   0  0  0  0  0  0  0  0  0  0  0  0
   -6.4588    1.5030   -9.5945 H   0  0  0  0  0  0  0  0  0  0  0  0
   -5.9325   -2.0625   -8.9979 H   0  0  0  0  0  0  0  0  0  0  0  0
   -7.5805   -2.2715   -8.3564 H   0  0  0  0  0  0  0  0  0  0  0  0
   -5.8565   -2.2206   -6.5426 H   0  0  0  0  0  0  0  0  0  0  0  0
   -7.0235   -0.8830   -6.4016 H   0  0  0  0  0  0  0  0  0  0  0  0
   -1.0037    1.6939    2.1552 H   0  0  0  0  0  0  0  0  0  0  0  0
    2.3375    4.8671    0.1385 H   0  0  0  0  0  0  0  0  0  0  0  0
    2.6821    1.3569   -0.6176 H   0  0  0  0  0  0  0  0  0  0  0  0
    6.9040    3.8887   -0.2781 H   0  0  0  0  0  0  0  0  0  0  0  0
    4.7980   -0.2292   -2.0257 H   0  0  0  0  0  0  0  0  0  0  0  0
   -5.0935   -0.3401   -7.0966 N   0  3  0  0  0  0  0  0  0  0  0  0
   -4.3506   -0.7503   -7.6746 H   0  0  0  0  0  0  0  0  0  0  0  0
  1  2  1  0  0  0  0
  1 34  1  0  0  0  0
  1 35  1  0  0  0  0
  1 36  1  0  0  0  0
  2  3  1  0  0  0  0
  3  8  2  0  0  0  0
  3  4  1  0  0  0  0
  4  5  2  0  0  0  0
  4 37  1  0  0  0  0
  5 21  1  0  0  0  0
  5  6  1  0  0  0  0
  6  7  2  0  0  0  0
  6 18  1  0  0  0  0
  7  8  1  0  0  0  0
  7 38  1  0  0  0  0
  8  9  1  0  0  0  0
  9 10  1  0  0  0  0
 10 11  1  0  0  0  0
 10 39  1  0  0  0  0
 10 40  1  0  0  0  0
 11 12  1  0  0  0  0
 11 41  1  0  0  0  0
 11 42  1  0  0  0  0
 12 43  1  0  0  0  0
 12 44  1  0  0  0  0
 12 58  1  0  0  0  0
 13 14  1  0  0  0  0
 13 45  1  0  0  0  0
 13 46  1  0  0  0  0
 13 58  1  0  0  0  0
 14 15  1  0  0  0  0
 14 47  1  0  0  0  0
 14 48  1  0  0  0  0
 15 16  1  0  0  0  0
 16 17  1  0  0  0  0
 16 49  1  0  0  0  0
 16 50  1  0  0  0  0
 17 51  1  0  0  0  0
 17 52  1  0  0  0  0
 17 58  1  0  0  0  0
 18 19  2  0  0  0  0
 19 20  1  0  0  0  0
 19 53  1  0  0  0  0
 20 21  2  0  0  0  0
 20 32  1  0  0  0  0
 21 22  1  0  0  0  0
 22 23  1  0  0  0  0
 22 54  1  0  0  0  0
 23 28  2  0  0  0  0
 23 24  1  0  0  0  0
 24 25  2  0  0  0  0
 24 55  1  0  0  0  0
 25 26  1  0  0  0  0
 25 31  1  0  0  0  0
 26 27  2  0  0  0  0
 26 30  1  0  0  0  0
 27 28  1  0  0  0  0
 27 56  1  0  0  0  0
 28 29  1  0  0  0  0
 31 57  1  0  0  0  0
 32 33  3  0  0  0  0
 58 59  1  0  0  0  0
M  CHG  1  58   1
M  END
$$$$
ZINC03834200
  -OEChem-08230709403D

 63 69  0     0  0  0  0  0  0999 V2000
    3.3119    2.9845   -0.9041 C   0  0  0  0  0  0  0  0  0  0  0  0
    2.8692    4.0952   -0.1983 C   0  0  0  0  0  0  0  0  0  0  0  0
    1.5392    4.2341    0.1344 C   0  0  0  0  0  0  0  0  0  0  0  0
    0.6264    3.2540   -0.2385 C   0  0  0  0  0  0  0  0  0  0  0  0
    1.0808    2.1303   -0.9537 C   0  0  0  0  0  0  0  0  0  0  0  0
    2.4334    2.0086   -1.2812 C   0  0  0  0  0  0  0  0  0  0  0  0
   -0.1032    1.3046   -1.1883 C   0  0  0  0  0  0  0  0  0  0  0  0
   -1.1440    1.9701   -0.6236 C   0  0  0  0  0  0  0  0  0  0  0  0
   -0.7018    3.1146   -0.0617 O   0  0  0  0  0  0  0  0  0  0  0  0
   -2.5399    1.5116   -0.6221 C   0  0  0  0  0  0  0  0  0  0  0  0
   -2.8351    0.4591   -1.1563 O   0  0  0  0  0  0  0  0  0  0  0  0
   -3.4934    2.2569   -0.0289 N   0  0  0  0  0  0  0  0  0  0  0  0
   -4.8336    1.8692   -0.1084 C   0  0  0  0  0  0  0  0  0  0  0  0
   -5.1788    0.5196   -0.1093 C   0  0  0  0  0  0  0  0  0  0  0  0
   -6.4956    0.1565   -0.1833 C   0  0  0  0  0  0  0  0  0  0  0  0
   -7.5257    1.0932   -0.2691 C   0  0  0  0  0  0  0  0  0  0  0  0
   -7.1590    2.4540   -0.2719 C   0  0  0  0  0  0  0  0  0  0  0  0
   -5.8392    2.8251   -0.1934 C   0  0  0  0  0  0  0  0  0  0  0  0
   -5.4149    4.5353   -0.1999 S   0  0  0  0  0  0  0  0  0  0  0  0
   -5.5466    4.9915    1.1395 O   0  0  0  0  0  0  0  0  0  0  0  0
   -4.1997    4.6495   -0.9275 O   0  0  0  0  0  0  0  0  0  0  0  0
   -8.9032    0.5370   -0.3487 C   0  0  0  0  0  0  0  0  0  0  0  0
  -10.1072    1.2635   -0.4423 C   0  0  0  0  0  0  0  0  0  0  0  0
  -11.3152    0.6138   -0.5094 C   0  0  0  0  0  0  0  0  0  0  0  0
  -11.3804   -0.7745   -0.4862 C   0  0  0  0  0  0  0  0  0  0  0  0
  -10.1995   -1.5075   -0.3941 C   0  0  0  0  0  0  0  0  0  0  0  0
   -8.9993   -0.8545   -0.3280 C   0  0  0  0  0  0  0  0  0  0  0  0
   -7.3198   -1.4151   -0.2069 S   0  0  0  0  0  0  0  0  0  0  0  0
   -7.1518   -2.0139    1.0708 O   0  0  0  0  0  0  0  0  0  0  0  0
   -6.9882   -2.0632   -1.4273 O   0  0  0  0  0  0  0  0  0  0  0  0
  -12.6146   -1.4264   -0.5550 N   0  0  0  0  0  0  0  0  0  0  0  0
  -12.8078   -2.5765    0.1205 C   0  0  0  0  0  0  0  0  0  0  0  0
  -11.8843   -3.0904    0.7234 O   0  0  0  0  0  0  0  0  0  0  0  0
  -14.1336   -3.2098    0.1288 C   0  0  0  0  0  0  0  0  0  0  0  0
  -14.4441   -4.3650    0.7725 C   0  0  0  0  0  0  0  0  0  0  0  0
  -15.8611   -4.6091    0.5056 C   0  0  0  0  0  0  0  0  0  0  0  0
  -16.7633   -5.6098    0.8749 C   0  0  0  0  0  0  0  0  0  0  0  0
  -18.0592   -5.5445    0.4473 C   0  0  0  0  0  0  0  0  0  0  0  0
  -18.4846   -4.4909   -0.3505 C   0  0  0  0  0  0  0  0  0  0  0  0
  -17.6104   -3.4940   -0.7258 C   0  0  0  0  0  0  0  0  0  0  0  0
  -16.2867   -3.5391   -0.3034 C   0  0  0  0  0  0  0  0  0  0  0  0
  -15.2280   -2.7287   -0.4971 O   0  0  0  0  0  0  0  0  0  0  0  0
  -12.8020    1.5523   -0.6257 S   0  0  0  0  0  0  0  0  0  0  0  0
  -12.9780    1.8656   -2.0005 O   0  0  0  0  0  0  0  0  0  0  0  0
  -13.7833    0.8537    0.1281 O   0  0  0  0  0  0  0  0  0  0  0  0
    4.3578    2.8917   -1.1570 H   0  0  0  0  0  0  0  0  0  0  0  0
    3.5750    4.8590    0.0929 H   0  0  0  0  0  0  0  0  0  0  0  0
    1.2066    5.1025    0.6836 H   0  0  0  0  0  0  0  0  0  0  0  0
    2.7831    1.1468   -1.8304 H   0  0  0  0  0  0  0  0  0  0  0  0
   -0.1428    0.3593   -1.7092 H   0  0  0  0  0  0  0  0  0  0  0  0
   -3.2493    3.0625    0.4532 H   0  0  0  0  0  0  0  0  0  0  0  0
   -4.4103   -0.2367   -0.0481 H   0  0  0  0  0  0  0  0  0  0  0  0
   -7.9243    3.2132   -0.3369 H   0  0  0  0  0  0  0  0  0  0  0  0
  -10.0796    2.3430   -0.4610 H   0  0  0  0  0  0  0  0  0  0  0  0
  -10.2313   -2.5869   -0.3752 H   0  0  0  0  0  0  0  0  0  0  0  0
  -13.3322   -1.0511   -1.0889 H   0  0  0  0  0  0  0  0  0  0  0  0
  -13.7793   -4.9787    1.3623 H   0  0  0  0  0  0  0  0  0  0  0  0
  -16.4378   -6.4313    1.4959 H   0  0  0  0  0  0  0  0  0  0  0  0
  -18.7576   -6.3175    0.7321 H   0  0  0  0  0  0  0  0  0  0  0  0
  -19.5122   -4.4520   -0.6805 H   0  0  0  0  0  0  0  0  0  0  0  0
  -17.9528   -2.6795   -1.3470 H   0  0  0  0  0  0  0  0  0  0  0  0
   -6.4784    5.2597   -1.0127 O   0  5  0  0  0  0  0  0  0  0  0  0
  -12.5588    2.8715    0.0934 O   0  5  0  0  0  0  0  0  0  0  0  0
  1  6  2  0  0  0  0
  1  2  1  0  0  0  0
  1 46  1  0  0  0  0
  2  3  2  0  0  0  0
  2 47  1  0  0  0  0
  3  4  1  0  0  0  0
  3 48  1  0  0  0  0
  4  9  1  0  0  0  0
  4  5  2  0  0  0  0
  5  6  1  0  0  0  0
  5  7  1  0  0  0  0
  6 49  1  0  0  0  0
  7  8  2  0  0  0  0
  7 50  1  0  0  0  0
  8  9  1  0  0  0  0
  8 10  1  0  0  0  0
 10 11  2  0  0  0  0
 10 12  1  0  0  0  0
 12 13  1  0  0  0  0
 12 51  1  0  0  0  0
 13 18  2  0  0  0  0
 13 14  1  0  0  0  0
 14 15  2  0  0  0  0
 14 52  1  0  0  0  0
 15 28  1  0  0  0  0
 15 16  1  0  0  0  0
 16 17  2  0  0  0  0
 16 22  1  0  0  0  0
 17 18  1  0  0  0  0
 17 53  1  0  0  0  0
 18 19  1  0  0  0  0
 19 20  2  0  0  0  0
 19 21  2  0  0  0  0
 19 62  1  0  0  0  0
 22 27  2  0  0  0  0
 22 23  1  0  0  0  0
 23 24  2  0  0  0  0
 23 54  1  0  0  0  0
 24 25  1  0  0  0  0
 24 43  1  0  0  0  0
 25 26  2  0  0  0  0
 25 31  1  0  0  0  0
 26 27  1  0  0  0  0
 26 55  1  0  0  0  0
 27 28  1  0  0  0  0
 28 29  2  0  0  0  0
 28 30  2  0  0  0  0
 31 32  1  0  0  0  0
 31 56  1  0  0  0  0
 32 33  2  0  0  0  0
 32 34  1  0  0  0  0
 34 42  1  0  0  0  0
 34 35  2  0  0  0  0
 35 36  1  0  0  0  0
 35 57  1  0  0  0  0
 36 41  2  0  0  0  0
 36 37  1  0  0  0  0
 37 38  2  0  0  0  0
 37 58  1  0  0  0  0
 38 39  1  0  0  0  0
 38 59  1  0  0  0  0
 39 40  2  0  0  0  0
 39 60  1  0  0  0  0
 40 41  1  0  0  0  0
 40 61  1  0  0  0  0
 41 42  1  0  0  0  0
 43 44  2  0  0  0  0
 43 45  2  0  0  0  0
 43 63  1  0  0  0  0
M  CHG  2  62  -1  63  -1
M  END
$$$$
ZINC03834201
  -OEChem-08230709403D

 32 34  0     0  0  0  0  0  0999 V2000
   -5.0680    1.3179   -1.4849 C   0  0  0  0  0  0  0  0  0  0  0  0
   -4.1013    0.4257   -0.7497 C   0  0  0  0  0  0  0  0  0  0  0  0
   -4.1948   -0.9600   -0.6073 C   0  0  0  0  0  0  0  0  0  0  0  0
   -3.1297   -1.3785    0.1208 C   0  0  0  0  0  0  0  0  0  0  0  0
   -2.3632   -0.3049    0.4383 N   0  0  0  0  0  0  0  0  0  0  0  0
   -1.5402   -0.3288    0.9512 H   0  0  0  0  0  0  0  0  0  0  0  0
   -2.9511    0.8258   -0.0870 C   0  0  0  0  0  0  0  0  0  0  0  0
   -2.4683    2.1461    0.0241 C   0  0  0  0  0  0  0  0  0  0  0  0
   -1.1181    2.4023   -0.1195 C   0  0  0  0  0  0  0  0  0  0  0  0
   -0.0653    1.4608   -0.5608 C   0  0  0  0  0  0  0  0  0  0  0  0
   -0.0813    0.1236   -0.9445 C   0  0  0  0  0  0  0  0  0  0  0  0
    1.0942   -0.4948   -1.3191 C   0  0  0  0  0  0  0  0  0  0  0  0
    2.2844    0.2139   -1.3133 C   0  0  0  0  0  0  0  0  0  0  0  0
    2.3110    1.5406   -0.9344 C   0  0  0  0  0  0  0  0  0  0  0  0
    1.1370    2.1811   -0.5531 C   0  0  0  0  0  0  0  0  0  0  0  0
    0.8862    3.4824   -0.1360 N   0  0  0  0  0  0  0  0  0  0  0  0
   -0.4171    3.6675    0.1342 C   0  0  0  0  0  0  0  0  0  0  0  0
   -0.9283    4.7045    0.5183 O   0  0  0  0  0  0  0  0  0  0  0  0
   -2.8407   -2.8058    0.5084 C   0  0  0  0  0  0  0  0  0  0  0  0
   -4.7594    1.4077   -2.5265 H   0  0  0  0  0  0  0  0  0  0  0  0
   -6.0680    0.8868   -1.4381 H   0  0  0  0  0  0  0  0  0  0  0  0
   -5.0757    2.3047   -1.0220 H   0  0  0  0  0  0  0  0  0  0  0  0
   -4.9776   -1.5880   -1.0064 H   0  0  0  0  0  0  0  0  0  0  0  0
   -3.1538    2.9570    0.2214 H   0  0  0  0  0  0  0  0  0  0  0  0
   -1.0098   -0.4280   -0.9495 H   0  0  0  0  0  0  0  0  0  0  0  0
    1.0861   -1.5327   -1.6177 H   0  0  0  0  0  0  0  0  0  0  0  0
    3.2004   -0.2767   -1.6077 H   0  0  0  0  0  0  0  0  0  0  0  0
    3.2452    2.0825   -0.9343 H   0  0  0  0  0  0  0  0  0  0  0  0
    1.5653    4.1698   -0.0511 H   0  0  0  0  0  0  0  0  0  0  0  0
   -2.2297   -3.2751   -0.2626 H   0  0  0  0  0  0  0  0  0  0  0  0
   -2.3048   -2.8232    1.4574 H   0  0  0  0  0  0  0  0  0  0  0  0
   -3.7787   -3.3515    0.6108 H   0  0  0  0  0  0  0  0  0  0  0  0
  1  2  1  0  0  0  0
  1 20  1  0  0  0  0
  1 21  1  0  0  0  0
  1 22  1  0  0  0  0
  2  7  2  0  0  0  0
  2  3  1  0  0  0  0
  3  4  2  0  0  0  0
  3 23  1  0  0  0  0
  4  5  1  0  0  0  0
  4 19  1  0  0  0  0
  5  6  1  0  0  0  0
  5  7  1  0  0  0  0
  7  8  1  0  0  0  0
  8  9  2  0  0  0  0
  8 24  1  0  0  0  0
  9 17  1  0  0  0  0
  9 10  1  0  0  0  0
 10 15  2  0  0  0  0
 10 11  1  0  0  0  0
 11 12  2  0  0  0  0
 11 25  1  0  0  0  0
 12 13  1  0  0  0  0
 12 26  1  0  0  0  0
 13 14  2  0  0  0  0
 13 27  1  0  0  0  0
 14 15  1  0  0  0  0
 14 28  1  0  0  0  0
 15 16  1  0  0  0  0
 16 17  1  0  0  0  0
 16 29  1  0  0  0  0
 17 18  2  0  0  0  0
 19 30  1  0  0  0  0
 19 31  1  0  0  0  0
 19 32  1  0  0  0  0
M  END
$$$$
ZINC03834202
  -OEChem-08230709403D

 59 63  0     0  0  0  0  0  0999 V2000
   -4.8284  -11.0632   -1.7756 C   0  0  0  0  0  0  0  0  0  0  0  0
   -2.4301  -10.8896   -2.0635 C   0  0  0  0  0  0  0  0  0  0  0  0
   -1.1378  -10.4125   -1.3966 C   0  0  0  0  0  0  0  0  0  0  0  0
   -2.3580   -8.6268   -0.3098 C   0  0  0  0  0  0  0  0  0  0  0  0
   -3.6503   -9.1040   -0.9767 C   0  0  0  0  0  0  0  0  0  0  0  0
    0.0403   -8.4532   -0.5977 C   0  0  0  0  0  0  0  0  0  0  0  0
    0.0199   -6.9234   -0.6059 C   0  0  0  0  0  0  0  0  0  0  0  0
    1.3260   -6.3927   -0.0114 C   0  0  0  0  0  0  0  0  0  0  0  0
    1.3065   -4.9279   -0.0193 N   0  0  0  0  0  0  0  0  0  0  0  0
    0.8073   -4.2611    1.0549 C   0  0  0  0  0  0  0  0  0  0  0  0
    0.7735   -2.9119    1.0803 C   0  0  0  0  0  0  0  0  0  0  0  0
    1.2633   -2.1768   -0.0231 C   0  0  0  0  0  0  0  0  0  0  0  0
    1.7661   -2.8658   -1.1173 C   0  0  0  0  0  0  0  0  0  0  0  0
    1.7827   -4.2664   -1.0902 C   0  0  0  0  0  0  0  0  0  0  0  0
    2.2255   -4.8887   -2.0429 O   0  0  0  0  0  0  0  0  0  0  0  0
    1.2348   -0.6962   -0.0139 C   0  0  0  0  0  0  0  0  0  0  0  0
    0.0021   -0.0041    0.0020 C   0  0  0  0  0  0  0  0  0  0  0  0
   -0.0157    1.3063    0.0092 N   0  0  0  0  0  0  0  0  0  0  0  0
    1.1217    2.0117    0.0022 C   0  0  0  0  0  0  0  0  0  0  0  0
    1.3782    3.3861    0.0087 C   0  0  0  0  0  0  0  0  0  0  0  0
    2.7666    3.5502   -0.0034 C   0  0  0  0  0  0  0  0  0  0  0  0
    3.3341    2.3675   -0.0162 N   0  0  0  0  0  0  0  0  0  0  0  0
    2.3412    1.3813   -0.0129 N   0  0  0  0  0  0  0  0  0  0  0  0
    2.4012    0.0194   -0.0212 C   0  0  0  0  0  0  0  0  0  0  0  0
    0.3644    4.4701    0.0246 C   0  0  0  0  0  0  0  0  0  0  0  0
    0.4485    5.5089    0.9463 C   0  0  0  0  0  0  0  0  0  0  0  0
   -0.4946    6.4787    0.9296 C   0  0  0  0  0  0  0  0  0  0  0  0
   -1.5527    5.9537   -0.4083 S   0  0  0  0  0  0  0  0  0  0  0  0
   -0.6688    4.4730   -0.8692 C   0  0  0  0  0  0  0  0  0  0  0  0
   -4.7698  -12.1474   -1.8716 H   0  0  0  0  0  0  0  0  0  0  0  0
   -5.6589  -10.8009   -1.1203 H   0  0  0  0  0  0  0  0  0  0  0  0
   -4.9869  -10.6195   -2.7585 H   0  0  0  0  0  0  0  0  0  0  0  0
   -2.5438  -10.3979   -3.0297 H   0  0  0  0  0  0  0  0  0  0  0  0
   -2.3877  -11.9692   -2.2077 H   0  0  0  0  0  0  0  0  0  0  0  0
   -0.2904  -10.6346   -2.0452 H   0  0  0  0  0  0  0  0  0  0  0  0
   -1.0103  -10.9245   -0.4429 H   0  0  0  0  0  0  0  0  0  0  0  0
   -2.2444   -9.1186    0.6564 H   0  0  0  0  0  0  0  0  0  0  0  0
   -2.4002   -7.5472   -0.1659 H   0  0  0  0  0  0  0  0  0  0  0  0
   -3.7778   -8.5920   -1.9304 H   0  0  0  0  0  0  0  0  0  0  0  0
   -4.4977   -8.8818   -0.3281 H   0  0  0  0  0  0  0  0  0  0  0  0
    0.8813   -8.8086   -1.1931 H   0  0  0  0  0  0  0  0  0  0  0  0
    0.1442   -8.8096    0.4271 H   0  0  0  0  0  0  0  0  0  0  0  0
   -0.8211   -6.5680   -0.0106 H   0  0  0  0  0  0  0  0  0  0  0  0
   -0.0841   -6.5669   -1.6308 H   0  0  0  0  0  0  0  0  0  0  0  0
    2.1670   -6.7481   -0.6068 H   0  0  0  0  0  0  0  0  0  0  0  0
    1.4300   -6.7492    1.0134 H   0  0  0  0  0  0  0  0  0  0  0  0
    0.4320   -4.8189    1.9001 H   0  0  0  0  0  0  0  0  0  0  0  0
    0.3732   -2.3960    1.9405 H   0  0  0  0  0  0  0  0  0  0  0  0
    2.1429   -2.3301   -1.9760 H   0  0  0  0  0  0  0  0  0  0  0  0
   -0.9262   -0.5560    0.0079 H   0  0  0  0  0  0  0  0  0  0  0  0
    3.2871    4.4965   -0.0025 H   0  0  0  0  0  0  0  0  0  0  0  0
    3.3549   -0.4872   -0.0338 H   0  0  0  0  0  0  0  0  0  0  0  0
    1.2547    5.5407    1.6642 H   0  0  0  0  0  0  0  0  0  0  0  0
   -0.5839    7.3485    1.5635 H   0  0  0  0  0  0  0  0  0  0  0  0
   -0.8936    3.7626   -1.6510 H   0  0  0  0  0  0  0  0  0  0  0  0
   -3.5700  -10.5657   -1.1799 N   0  3  0  0  0  0  0  0  0  0  0  0
   -3.4279  -11.0217   -0.2710 H   0  0  0  0  0  0  0  0  0  0  0  0
   -1.2183   -8.9505   -1.1933 N   0  3  0  0  0  0  0  0  0  0  0  0
   -1.3603   -8.4944   -2.1021 H   0  0  0  0  0  0  0  0  0  0  0  0
  1 30  1  0  0  0  0
  1 31  1  0  0  0  0
  1 32  1  0  0  0  0
  1 56  1  0  0  0  0
  2  3  1  0  0  0  0
  2 33  1  0  0  0  0
  2 34  1  0  0  0  0
  2 56  1  0  0  0  0
  3 35  1  0  0  0  0
  3 36  1  0  0  0  0
  3 58  1  0  0  0  0
  4  5  1  0  0  0  0
  4 37  1  0  0  0  0
  4 38  1  0  0  0  0
  4 58  1  0  0  0  0
  5 39  1  0  0  0  0
  5 40  1  0  0  0  0
  5 56  1  0  0  0  0
  6  7  1  0  0  0  0
  6 41  1  0  0  0  0
  6 42  1  0  0  0  0
  6 58  1  0  0  0  0
  7  8  1  0  0  0  0
  7 43  1  0  0  0  0
  7 44  1  0  0  0  0
  8  9  1  0  0  0  0
  8 45  1  0  0  0  0
  8 46  1  0  0  0  0
  9 14  1  0  0  0  0
  9 10  1  0  0  0  0
 10 11  2  0  0  0  0
 10 47  1  0  0  0  0
 11 12  1  0  0  0  0
 11 48  1  0  0  0  0
 12 13  2  0  0  0  0
 12 16  1  0  0  0  0
 13 14  1  0  0  0  0
 13 49  1  0  0  0  0
 14 15  2  0  0  0  0
 16 24  2  0  0  0  0
 16 17  1  0  0  0  0
 17 18  2  0  0  0  0
 17 50  1  0  0  0  0
 18 19  1  0  0  0  0
 19 23  1  0  0  0  0
 19 20  2  0  0  0  0
 20 21  1  0  0  0  0
 20 25  1  0  0  0  0
 21 22  2  0  0  0  0
 21 51  1  0  0  0  0
 22 23  1  0  0  0  0
 23 24  1  0  0  0  0
 24 52  1  0  0  0  0
 25 29  2  0  0  0  0
 25 26  1  0  0  0  0
 26 27  2  0  0  0  0
 26 53  1  0  0  0  0
 27 28  1  0  0  0  0
 27 54  1  0  0  0  0
 28 29  1  0  0  0  0
 29 55  1  0  0  0  0
 56 57  1  0  0  0  0
 58 59  1  0  0  0  0
M  CHG  2  56   1  58   1
M  END
$$$$
ZINC04617981
  -OEChem-08230709403D

 53 57  0     0  0  0  0  0  0999 V2000
    5.0247   10.2117   -5.1579 C   0  0  0  0  0  0  0  0  0  0  0  0
    3.6951    9.5979   -5.1999 N   0  0  0  0  0  0  0  0  0  0  0  0
    2.7452    9.7911   -6.1532 C   0  0  0  0  0  0  0  0  0  0  0  0
    1.6728    9.0386   -5.8048 C   0  0  0  0  0  0  0  0  0  0  0  0
    1.9601    8.3959   -4.6753 N   0  0  0  0  0  0  0  0  0  0  0  0
    3.1769    8.7184   -4.2910 C   0  0  0  0  0  0  0  0  0  0  0  0
    3.8630    8.2170   -3.0871 C   0  0  0  0  0  0  0  0  0  0  0  0
    4.9933    8.5870   -2.8328 O   0  0  0  0  0  0  0  0  0  0  0  0
    3.2380    7.3484   -2.2677 N   0  0  0  0  0  0  0  0  0  0  0  0
    3.9294    6.7787   -1.1944 C   0  0  0  0  0  0  0  0  0  0  0  0
    3.2354    6.3449   -0.0713 C   0  0  0  0  0  0  0  0  0  0  0  0
    3.9184    5.7817    0.9889 C   0  0  0  0  0  0  0  0  0  0  0  0
    5.2930    5.6479    0.9360 C   0  0  0  0  0  0  0  0  0  0  0  0
    5.9916    6.0792   -0.1830 C   0  0  0  0  0  0  0  0  0  0  0  0
    5.3090    6.6403   -1.2515 C   0  0  0  0  0  0  0  0  0  0  0  0
    7.3429    5.9462   -0.2339 O   0  0  0  0  0  0  0  0  0  0  0  0
    8.1008    7.0596   -0.0540 C   0  0  0  0  0  0  0  0  0  0  0  0
    7.4842    8.3042    0.0666 C   0  0  0  0  0  0  0  0  0  0  0  0
    8.2298    9.4318    0.2531 C   0  0  0  0  0  0  0  0  0  0  0  0
    9.6221    9.3434    0.3134 C   0  0  0  0  0  0  0  0  0  0  0  0
   10.2520    8.0924    0.1869 C   0  0  0  0  0  0  0  0  0  0  0  0
    9.4766    6.9506    0.0024 C   0  0  0  0  0  0  0  0  0  0  0  0
   11.6032    8.3119    0.2842 N   0  0  0  0  0  0  0  0  0  0  0  0
   12.3091    7.6057    0.2308 H   0  0  0  0  0  0  0  0  0  0  0  0
   11.8382    9.6778    0.4697 N   0  0  0  0  0  0  0  0  0  0  0  0
   10.6966   10.3293    0.4938 C   0  0  0  0  0  0  0  0  0  0  0  0
   10.5261   11.7797    0.6688 C   0  0  0  0  0  0  0  0  0  0  0  0
   11.6034   12.5694    0.8245 C   0  0  0  0  0  0  0  0  0  0  0  0
   11.4328   14.0212    0.9997 C   0  0  0  0  0  0  0  0  0  0  0  0
   12.5557   14.8369    1.1669 C   0  0  0  0  0  0  0  0  0  0  0  0
   12.3782   16.1989    1.3254 C   0  0  0  0  0  0  0  0  0  0  0  0
   11.0846   16.7044    1.3227 C   0  0  0  0  0  0  0  0  0  0  0  0
   10.0175   15.8406    1.1576 C   0  0  0  0  0  0  0  0  0  0  0  0
   10.2111   14.5469    1.0032 N   0  0  0  0  0  0  0  0  0  0  0  0
    5.7341    9.5787   -5.6908 H   0  0  0  0  0  0  0  0  0  0  0  0
    4.9869   11.1931   -5.6307 H   0  0  0  0  0  0  0  0  0  0  0  0
    5.3422   10.3201   -4.1208 H   0  0  0  0  0  0  0  0  0  0  0  0
    2.8284   10.4264   -7.0227 H   0  0  0  0  0  0  0  0  0  0  0  0
    0.7449    8.9688   -6.3530 H   0  0  0  0  0  0  0  0  0  0  0  0
    2.3084    7.1186   -2.4227 H   0  0  0  0  0  0  0  0  0  0  0  0
    2.1612    6.4480   -0.0275 H   0  0  0  0  0  0  0  0  0  0  0  0
    3.3772    5.4449    1.8607 H   0  0  0  0  0  0  0  0  0  0  0  0
    5.8242    5.2067    1.7665 H   0  0  0  0  0  0  0  0  0  0  0  0
    5.8504    6.9725   -2.1250 H   0  0  0  0  0  0  0  0  0  0  0  0
    6.4078    8.3759    0.0163 H   0  0  0  0  0  0  0  0  0  0  0  0
    7.7440   10.3915    0.3500 H   0  0  0  0  0  0  0  0  0  0  0  0
    9.9488    5.9843   -0.0964 H   0  0  0  0  0  0  0  0  0  0  0  0
    9.5358   12.2105    0.6723 H   0  0  0  0  0  0  0  0  0  0  0  0
   12.5938   12.1387    0.8211 H   0  0  0  0  0  0  0  0  0  0  0  0
   13.5477   14.4099    1.1685 H   0  0  0  0  0  0  0  0  0  0  0  0
   13.2266   16.8548    1.4527 H   0  0  0  0  0  0  0  0  0  0  0  0
   10.9135   17.7634    1.4480 H   0  0  0  0  0  0  0  0  0  0  0  0
    9.0111   16.2323    1.1549 H   0  0  0  0  0  0  0  0  0  0  0  0
  1  2  1  0  0  0  0
  1 35  1  0  0  0  0
  1 36  1  0  0  0  0
  1 37  1  0  0  0  0
  2  6  1  0  0  0  0
  2  3  1  0  0  0  0
  3  4  2  0  0  0  0
  3 38  1  0  0  0  0
  4  5  1  0  0  0  0
  4 39  1  0  0  0  0
  5  6  2  0  0  0  0
  6  7  1  0  0  0  0
  7  8  2  0  0  0  0
  7  9  1  0  0  0  0
  9 10  1  0  0  0  0
  9 40  1  0  0  0  0
 10 15  2  0  0  0  0
 10 11  1  0  0  0  0
 11 12  2  0  0  0  0
 11 41  1  0  0  0  0
 12 13  1  0  0  0  0
 12 42  1  0  0  0  0
 13 14  2  0  0  0  0
 13 43  1  0  0  0  0
 14 15  1  0  0  0  0
 14 16  1  0  0  0  0
 15 44  1  0  0  0  0
 16 17  1  0  0  0  0
 17 22  2  0  0  0  0
 17 18  1  0  0  0  0
 18 19  2  0  0  0  0
 18 45  1  0  0  0  0
 19 20  1  0  0  0  0
 19 46  1  0  0  0  0
 20 26  1  0  0  0  0
 20 21  2  0  0  0  0
 21 22  1  0  0  0  0
 21 23  1  0  0  0  0
 22 47  1  0  0  0  0
 23 24  1  0  0  0  0
 23 25  1  0  0  0  0
 25 26  2  0  0  0  0
 26 27  1  0  0  0  0
 27 28  2  0  0  0  0
 27 48  1  0  0  0  0
 28 29  1  0  0  0  0
 28 49  1  0  0  0  0
 29 34  2  0  0  0  0
 29 30  1  0  0  0  0
 30 31  2  0  0  0  0
 30 50  1  0  0  0  0
 31 32  1  0  0  0  0
 31 51  1  0  0  0  0
 32 33  2  0  0  0  0
 32 52  1  0  0  0  0
 33 34  1  0  0  0  0
 33 53  1  0  0  0  0
M  END
$$$$
ZINC04617981
  -OEChem-08230709403D

 53 57  0     0  0  0  0  0  0999 V2000
    5.0247   10.2117   -5.1579 C   0  0  0  0  0  0  0  0  0  0  0  0
    3.6951    9.5979   -5.1999 N   0  0  0  0  0  0  0  0  0  0  0  0
    2.7452    9.7911   -6.1532 C   0  0  0  0  0  0  0  0  0  0  0  0
    1.6728    9.0386   -5.8048 C   0  0  0  0  0  0  0  0  0  0  0  0
    1.9601    8.3959   -4.6753 N   0  0  0  0  0  0  0  0  0  0  0  0
    3.1769    8.7184   -4.2910 C   0  0  0  0  0  0  0  0  0  0  0  0
    3.8630    8.2170   -3.0871 C   0  0  0  0  0  0  0  0  0  0  0  0
    4.9933    8.5870   -2.8328 O   0  0  0  0  0  0  0  0  0  0  0  0
    3.2380    7.3484   -2.2677 N   0  0  0  0  0  0  0  0  0  0  0  0
    3.9294    6.7787   -1.1944 C   0  0  0  0  0  0  0  0  0  0  0  0
    3.2354    6.3449   -0.0713 C   0  0  0  0  0  0  0  0  0  0  0  0
    3.9184    5.7817    0.9889 C   0  0  0  0  0  0  0  0  0  0  0  0
    5.2930    5.6479    0.9360 C   0  0  0  0  0  0  0  0  0  0  0  0
    5.9916    6.0792   -0.1830 C   0  0  0  0  0  0  0  0  0  0  0  0
    5.3090    6.6403   -1.2515 C   0  0  0  0  0  0  0  0  0  0  0  0
    7.3429    5.9462   -0.2339 O   0  0  0  0  0  0  0  0  0  0  0  0
    8.1008    7.0596   -0.0540 C   0  0  0  0  0  0  0  0  0  0  0  0
    7.4842    8.3042    0.0666 C   0  0  0  0  0  0  0  0  0  0  0  0
    8.2298    9.4318    0.2531 C   0  0  0  0  0  0  0  0  0  0  0  0
    9.6221    9.3434    0.3134 C   0  0  0  0  0  0  0  0  0  0  0  0
   10.2520    8.0924    0.1869 C   0  0  0  0  0  0  0  0  0  0  0  0
    9.4766    6.9506    0.0024 C   0  0  0  0  0  0  0  0  0  0  0  0
   11.6032    8.3119    0.2842 N   0  0  0  0  0  0  0  0  0  0  0  0
   12.3091    7.6057    0.2308 H   0  0  0  0  0  0  0  0  0  0  0  0
   11.8382    9.6778    0.4697 N   0  0  0  0  0  0  0  0  0  0  0  0
   10.6966   10.3293    0.4938 C   0  0  0  0  0  0  0  0  0  0  0  0
   10.5261   11.7797    0.6688 C   0  0  0  0  0  0  0  0  0  0  0  0
   11.6034   12.5694    0.8245 C   0  0  0  0  0  0  0  0  0  0  0  0
   11.4328   14.0212    0.9997 C   0  0  0  0  0  0  0  0  0  0  0  0
   12.5557   14.8369    1.1669 C   0  0  0  0  0  0  0  0  0  0  0  0
   12.3782   16.1989    1.3254 C   0  0  0  0  0  0  0  0  0  0  0  0
   11.0846   16.7044    1.3227 C   0  0  0  0  0  0  0  0  0  0  0  0
   10.0175   15.8406    1.1576 C   0  0  0  0  0  0  0  0  0  0  0  0
   10.2111   14.5469    1.0032 N   0  0  0  0  0  0  0  0  0  0  0  0
    5.7341    9.5787   -5.6908 H   0  0  0  0  0  0  0  0  0  0  0  0
    4.9869   11.1931   -5.6307 H   0  0  0  0  0  0  0  0  0  0  0  0
    5.3422   10.3201   -4.1208 H   0  0  0  0  0  0  0  0  0  0  0  0
    2.8284   10.4264   -7.0227 H   0  0  0  0  0  0  0  0  0  0  0  0
    0.7449    8.9688   -6.3530 H   0  0  0  0  0  0  0  0  0  0  0  0
    2.3084    7.1186   -2.4227 H   0  0  0  0  0  0  0  0  0  0  0  0
    2.1612    6.4480   -0.0275 H   0  0  0  0  0  0  0  0  0  0  0  0
    3.3772    5.4449    1.8607 H   0  0  0  0  0  0  0  0  0  0  0  0
    5.8242    5.2067    1.7665 H   0  0  0  0  0  0  0  0  0  0  0  0
    5.8504    6.9725   -2.1250 H   0  0  0  0  0  0  0  0  0  0  0  0
    6.4078    8.3759    0.0163 H   0  0  0  0  0  0  0  0  0  0  0  0
    7.7440   10.3915    0.3500 H   0  0  0  0  0  0  0  0  0  0  0  0
    9.9488    5.9843   -0.0964 H   0  0  0  0  0  0  0  0  0  0  0  0
    9.5358   12.2105    0.6723 H   0  0  0  0  0  0  0  0  0  0  0  0
   12.5938   12.1387    0.8211 H   0  0  0  0  0  0  0  0  0  0  0  0
   13.5477   14.4099    1.1685 H   0  0  0  0  0  0  0  0  0  0  0  0
   13.2266   16.8548    1.4527 H   0  0  0  0  0  0  0  0  0  0  0  0
   10.9135   17.7634    1.4480 H   0  0  0  0  0  0  0  0  0  0  0  0
    9.0111   16.2323    1.1549 H   0  0  0  0  0  0  0  0  0  0  0  0
  1  2  1  0  0  0  0
  1 35  1  0  0  0  0
  1 36  1  0  0  0  0
  1 37  1  0  0  0  0
  2  6  1  0  0  0  0
  2  3  1  0  0  0  0
  3  4  2  0  0  0  0
  3 38  1  0  0  0  0
  4  5  1  0  0  0  0
  4 39  1  0  0  0  0
  5  6  2  0  0  0  0
  6  7  1  0  0  0  0
  7  8  2  0  0  0  0
  7  9  1  0  0  0  0
  9 10  1  0  0  0  0
  9 40  1  0  0  0  0
 10 15  2  0  0  0  0
 10 11  1  0  0  0  0
 11 12  2  0  0  0  0
 11 41  1  0  0  0  0
 12 13  1  0  0  0  0
 12 42  1  0  0  0  0
 13 14  2  0  0  0  0
 13 43  1  0  0  0  0
 14 15  1  0  0  0  0
 14 16  1  0  0  0  0
 15 44  1  0  0  0  0
 16 17  1  0  0  0  0
 17 22  2  0  0  0  0
 17 18  1  0  0  0  0
 18 19  2  0  0  0  0
 18 45  1  0  0  0  0
 19 20  1  0  0  0  0
 19 46  1  0  0  0  0
 20 26  1  0  0  0  0
 20 21  2  0  0  0  0
 21 22  1  0  0  0  0
 21 23  1  0  0  0  0
 22 47  1  0  0  0  0
 23 24  1  0  0  0  0
 23 25  1  0  0  0  0
 25 26  2  0  0  0  0
 26 27  1  0  0  0  0
 27 28  2  0  0  0  0
 27 48  1  0  0  0  0
 28 29  1  0  0  0  0
 28 49  1  0  0  0  0
 29 34  2  0  0  0  0
 29 30  1  0  0  0  0
 30 31  2  0  0  0  0
 30 50  1  0  0  0  0
 31 32  1  0  0  0  0
 31 51  1  0  0  0  0
 32 33  2  0  0  0  0
 32 52  1  0  0  0  0
 33 34  1  0  0  0  0
 33 53  1  0  0  0  0
M  END
$$$$
ZINC04617981
  -OEChem-08230709403D

 54 58  0     0  0  0  0  0  0999 V2000
    5.0247   10.2117   -5.1579 C   0  0  0  0  0  0  0  0  0  0  0  0
    3.6951    9.5979   -5.1999 N   0  0  0  0  0  0  0  0  0  0  0  0
    2.7452    9.7911   -6.1532 C   0  0  0  0  0  0  0  0  0  0  0  0
    1.6728    9.0386   -5.8048 C   0  0  0  0  0  0  0  0  0  0  0  0
    3.1769    8.7184   -4.2910 C   0  0  0  0  0  0  0  0  0  0  0  0
    3.8630    8.2170   -3.0871 C   0  0  0  0  0  0  0  0  0  0  0  0
    4.9933    8.5870   -2.8328 O   0  0  0  0  0  0  0  0  0  0  0  0
    3.2380    7.3484   -2.2677 N   0  0  0  0  0  0  0  0  0  0  0  0
    3.9294    6.7787   -1.1944 C   0  0  0  0  0  0  0  0  0  0  0  0
    3.2354    6.3449   -0.0713 C   0  0  0  0  0  0  0  0  0  0  0  0
    3.9184    5.7817    0.9889 C   0  0  0  0  0  0  0  0  0  0  0  0
    5.2930    5.6479    0.9360 C   0  0  0  0  0  0  0  0  0  0  0  0
    5.9916    6.0792   -0.1830 C   0  0  0  0  0  0  0  0  0  0  0  0
    5.3090    6.6403   -1.2515 C   0  0  0  0  0  0  0  0  0  0  0  0
    7.3429    5.9462   -0.2339 O   0  0  0  0  0  0  0  0  0  0  0  0
    8.1008    7.0596   -0.0540 C   0  0  0  0  0  0  0  0  0  0  0  0
    7.4842    8.3042    0.0666 C   0  0  0  0  0  0  0  0  0  0  0  0
    8.2298    9.4318    0.2531 C   0  0  0  0  0  0  0  0  0  0  0  0
    9.6221    9.3434    0.3134 C   0  0  0  0  0  0  0  0  0  0  0  0
   10.2520    8.0924    0.1869 C   0  0  0  0  0  0  0  0  0  0  0  0
    9.4766    6.9506    0.0024 C   0  0  0  0  0  0  0  0  0  0  0  0
   11.6032    8.3119    0.2842 N   0  0  0  0  0  0  0  0  0  0  0  0
   12.3091    7.6057    0.2308 H   0  0  0  0  0  0  0  0  0  0  0  0
   11.8382    9.6778    0.4697 N   0  0  0  0  0  0  0  0  0  0  0  0
   10.6966   10.3293    0.4938 C   0  0  0  0  0  0  0  0  0  0  0  0
   10.5261   11.7797    0.6688 C   0  0  0  0  0  0  0  0  0  0  0  0
   11.6034   12.5694    0.8245 C   0  0  0  0  0  0  0  0  0  0  0  0
   11.4328   14.0212    0.9997 C   0  0  0  0  0  0  0  0  0  0  0  0
   12.5557   14.8369    1.1669 C   0  0  0  0  0  0  0  0  0  0  0  0
   12.3782   16.1989    1.3254 C   0  0  0  0  0  0  0  0  0  0  0  0
   11.0846   16.7044    1.3227 C   0  0  0  0  0  0  0  0  0  0  0  0
   10.0175   15.8406    1.1576 C   0  0  0  0  0  0  0  0  0  0  0  0
   10.2111   14.5469    1.0032 N   0  0  0  0  0  0  0  0  0  0  0  0
    5.7341    9.5787   -5.6908 H   0  0  0  0  0  0  0  0  0  0  0  0
    4.9869   11.1931   -5.6307 H   0  0  0  0  0  0  0  0  0  0  0  0
    5.3422   10.3201   -4.1208 H   0  0  0  0  0  0  0  0  0  0  0  0
    2.8284   10.4264   -7.0227 H   0  0  0  0  0  0  0  0  0  0  0  0
    0.7449    8.9688   -6.3530 H   0  0  0  0  0  0  0  0  0  0  0  0
    2.3084    7.1186   -2.4227 H   0  0  0  0  0  0  0  0  0  0  0  0
    2.1612    6.4480   -0.0275 H   0  0  0  0  0  0  0  0  0  0  0  0
    3.3772    5.4449    1.8607 H   0  0  0  0  0  0  0  0  0  0  0  0
    5.8242    5.2067    1.7665 H   0  0  0  0  0  0  0  0  0  0  0  0
    5.8504    6.9725   -2.1250 H   0  0  0  0  0  0  0  0  0  0  0  0
    6.4078    8.3759    0.0163 H   0  0  0  0  0  0  0  0  0  0  0  0
    7.7440   10.3915    0.3500 H   0  0  0  0  0  0  0  0  0  0  0  0
    9.9488    5.9843   -0.0964 H   0  0  0  0  0  0  0  0  0  0  0  0
    9.5358   12.2105    0.6723 H   0  0  0  0  0  0  0  0  0  0  0  0
   12.5938   12.1387    0.8211 H   0  0  0  0  0  0  0  0  0  0  0  0
   13.5477   14.4099    1.1685 H   0  0  0  0  0  0  0  0  0  0  0  0
   13.2266   16.8548    1.4527 H   0  0  0  0  0  0  0  0  0  0  0  0
   10.9135   17.7634    1.4480 H   0  0  0  0  0  0  0  0  0  0  0  0
    9.0111   16.2323    1.1549 H   0  0  0  0  0  0  0  0  0  0  0  0
    1.9611    8.3969   -4.6761 N   0  3  0  0  0  0  0  0  0  0  0  0
    1.3330    7.7517   -4.1827 H   0  0  0  0  0  0  0  0  0  0  0  0
  1  2  1  0  0  0  0
  1 34  1  0  0  0  0
  1 35  1  0  0  0  0
  1 36  1  0  0  0  0
  2  5  1  0  0  0  0
  2  3  1  0  0  0  0
  3  4  2  0  0  0  0
  3 37  1  0  0  0  0
  4 38  1  0  0  0  0
  4 53  1  0  0  0  0
  5  6  1  0  0  0  0
  5 53  2  0  0  0  0
  6  7  2  0  0  0  0
  6  8  1  0  0  0  0
  8  9  1  0  0  0  0
  8 39  1  0  0  0  0
  9 14  2  0  0  0  0
  9 10  1  0  0  0  0
 10 11  2  0  0  0  0
 10 40  1  0  0  0  0
 11 12  1  0  0  0  0
 11 41  1  0  0  0  0
 12 13  2  0  0  0  0
 12 42  1  0  0  0  0
 13 14  1  0  0  0  0
 13 15  1  0  0  0  0
 14 43  1  0  0  0  0
 15 16  1  0  0  0  0
 16 21  2  0  0  0  0
 16 17  1  0  0  0  0
 17 18  2  0  0  0  0
 17 44  1  0  0  0  0
 18 19  1  0  0  0  0
 18 45  1  0  0  0  0
 19 25  1  0  0  0  0
 19 20  2  0  0  0  0
 20 21  1  0  0  0  0
 20 22  1  0  0  0  0
 21 46  1  0  0  0  0
 22 23  1  0  0  0  0
 22 24  1  0  0  0  0
 24 25  2  0  0  0  0
 25 26  1  0  0  0  0
 26 27  2  0  0  0  0
 26 47  1  0  0  0  0
 27 28  1  0  0  0  0
 27 48  1  0  0  0  0
 28 33  2  0  0  0  0
 28 29  1  0  0  0  0
 29 30  2  0  0  0  0
 29 49  1  0  0  0  0
 30 31  1  0  0  0  0
 30 50  1  0  0  0  0
 31 32  2  0  0  0  0
 31 51  1  0  0  0  0
 32 33  1  0  0  0  0
 32 52  1  0  0  0  0
 53 54  1  0  0  0  0
M  CHG  1  53   1
M  END
$$$$
ZINC04617982
  -OEChem-08230709403D

 54 59  0     0  0  0  0  0  0999 V2000
    4.2200   -8.2542   -3.2725 C   0  0  0  0  0  0  0  0  0  0  0  0
    3.5223   -8.8969   -2.2652 C   0  0  0  0  0  0  0  0  0  0  0  0
    2.5325   -8.2300   -1.5734 C   0  0  0  0  0  0  0  0  0  0  0  0
    2.2355   -6.9037   -1.8916 C   0  0  0  0  0  0  0  0  0  0  0  0
    2.9395   -6.2628   -2.9125 C   0  0  0  0  0  0  0  0  0  0  0  0
    3.9305   -6.9396   -3.5929 C   0  0  0  0  0  0  0  0  0  0  0  0
    1.1759   -6.1830   -1.1549 C   0  0  0  0  0  0  0  0  0  0  0  0
    0.5610   -6.7452   -0.2697 O   0  0  0  0  0  0  0  0  0  0  0  0
    0.8915   -4.9025   -1.4645 N   0  0  0  0  0  0  0  0  0  0  0  0
   -0.1830   -4.2553   -0.8455 C   0  0  0  0  0  0  0  0  0  0  0  0
   -1.3190   -4.9756   -0.4936 C   0  0  0  0  0  0  0  0  0  0  0  0
   -2.3836   -4.3411    0.1188 C   0  0  0  0  0  0  0  0  0  0  0  0
   -2.3267   -2.9882    0.3844 C   0  0  0  0  0  0  0  0  0  0  0  0
   -1.1903   -2.2552    0.0346 C   0  0  0  0  0  0  0  0  0  0  0  0
   -0.1174   -2.8952   -0.5881 C   0  0  0  0  0  0  0  0  0  0  0  0
   -1.1266   -0.8061    0.3173 C   0  0  0  0  0  0  0  0  0  0  0  0
   -2.1363   -0.1312    0.2627 O   0  0  0  0  0  0  0  0  0  0  0  0
    0.1628   -0.1783    0.6660 C   0  0  0  0  0  0  0  0  0  0  0  0
    1.2940   -0.9800    0.8849 C   0  0  0  0  0  0  0  0  0  0  0  0
    2.4889   -0.4132    1.2071 C   0  0  0  0  0  0  0  0  0  0  0  0
    2.5960    0.9772    1.3219 C   0  0  0  0  0  0  0  0  0  0  0  0
    1.4686    1.7921    1.1042 C   0  0  0  0  0  0  0  0  0  0  0  0
    0.2522    1.2065    0.7758 C   0  0  0  0  0  0  0  0  0  0  0  0
    1.8732    3.0919    1.2849 N   0  0  0  0  0  0  0  0  0  0  0  0
    1.2878    3.8979    1.1970 H   0  0  0  0  0  0  0  0  0  0  0  0
    3.2328    3.1108    1.6112 N   0  0  0  0  0  0  0  0  0  0  0  0
    3.7027    1.8842    1.6448 C   0  0  0  0  0  0  0  0  0  0  0  0
    5.0921    1.4904    1.9521 C   0  0  0  0  0  0  0  0  0  0  0  0
    6.1091    2.3576    2.2509 N   0  0  0  0  0  0  0  0  0  0  0  0
    6.0442    3.3543    2.2991 H   0  0  0  0  0  0  0  0  0  0  0  0
    7.2415    1.5978    2.4733 C   0  0  0  0  0  0  0  0  0  0  0  0
    8.5542    1.9004    2.8072 C   0  0  0  0  0  0  0  0  0  0  0  0
    9.4724    0.8830    2.9614 C   0  0  0  0  0  0  0  0  0  0  0  0
    9.0925   -0.4401    2.7859 C   0  0  0  0  0  0  0  0  0  0  0  0
    7.8052   -0.7578    2.4576 C   0  0  0  0  0  0  0  0  0  0  0  0
    6.8564    0.2571    2.2954 C   0  0  0  0  0  0  0  0  0  0  0  0
    5.5370    0.2570    1.9855 N   0  0  0  0  0  0  0  0  0  0  0  0
    4.9942   -8.7807   -3.8108 H   0  0  0  0  0  0  0  0  0  0  0  0
    3.7534   -9.9230   -2.0198 H   0  0  0  0  0  0  0  0  0  0  0  0
    1.9885   -8.7329   -0.7877 H   0  0  0  0  0  0  0  0  0  0  0  0
    2.7115   -5.2381   -3.1665 H   0  0  0  0  0  0  0  0  0  0  0  0
    4.4786   -6.4438   -4.3804 H   0  0  0  0  0  0  0  0  0  0  0  0
    1.4319   -4.4296   -2.1166 H   0  0  0  0  0  0  0  0  0  0  0  0
   -1.3697   -6.0346   -0.6992 H   0  0  0  0  0  0  0  0  0  0  0  0
   -3.2631   -4.9062    0.3900 H   0  0  0  0  0  0  0  0  0  0  0  0
   -3.1605   -2.4963    0.8630 H   0  0  0  0  0  0  0  0  0  0  0  0
    0.7622   -2.3330   -0.8650 H   0  0  0  0  0  0  0  0  0  0  0  0
    1.2158   -2.0536    0.7970 H   0  0  0  0  0  0  0  0  0  0  0  0
    3.3548   -1.0369    1.3737 H   0  0  0  0  0  0  0  0  0  0  0  0
   -0.6179    1.8224    0.6023 H   0  0  0  0  0  0  0  0  0  0  0  0
    8.8556    2.9284    2.9447 H   0  0  0  0  0  0  0  0  0  0  0  0
   10.4941    1.1176    3.2209 H   0  0  0  0  0  0  0  0  0  0  0  0
    9.8219   -1.2267    2.9106 H   0  0  0  0  0  0  0  0  0  0  0  0
    7.5203   -1.7909    2.3237 H   0  0  0  0  0  0  0  0  0  0  0  0
  1  6  2  0  0  0  0
  1  2  1  0  0  0  0
  1 38  1  0  0  0  0
  2  3  2  0  0  0  0
  2 39  1  0  0  0  0
  3  4  1  0  0  0  0
  3 40  1  0  0  0  0
  4  5  2  0  0  0  0
  4  7  1  0  0  0  0
  5  6  1  0  0  0  0
  5 41  1  0  0  0  0
  6 42  1  0  0  0  0
  7  8  2  0  0  0  0
  7  9  1  0  0  0  0
  9 10  1  0  0  0  0
  9 43  1  0  0  0  0
 10 15  2  0  0  0  0
 10 11  1  0  0  0  0
 11 12  2  0  0  0  0
 11 44  1  0  0  0  0
 12 13  1  0  0  0  0
 12 45  1  0  0  0  0
 13 14  2  0  0  0  0
 13 46  1  0  0  0  0
 14 15  1  0  0  0  0
 14 16  1  0  0  0  0
 15 47  1  0  0  0  0
 16 17  2  0  0  0  0
 16 18  1  0  0  0  0
 18 23  2  0  0  0  0
 18 19  1  0  0  0  0
 19 20  2  0  0  0  0
 19 48  1  0  0  0  0
 20 21  1  0  0  0  0
 20 49  1  0  0  0  0
 21 27  1  0  0  0  0
 21 22  2  0  0  0  0
 22 23  1  0  0  0  0
 22 24  1  0  0  0  0
 23 50  1  0  0  0  0
 24 25  1  0  0  0  0
 24 26  1  0  0  0  0
 26 27  2  0  0  0  0
 27 28  1  0  0  0  0
 28 37  2  0  0  0  0
 28 29  1  0  0  0  0
 29 30  1  0  0  0  0
 29 31  1  0  0  0  0
 31 36  2  0  0  0  0
 31 32  1  0  0  0  0
 32 33  2  0  0  0  0
 32 51  1  0  0  0  0
 33 34  1  0  0  0  0
 33 52  1  0  0  0  0
 34 35  2  0  0  0  0
 34 53  1  0  0  0  0
 35 36  1  0  0  0  0
 35 54  1  0  0  0  0
 36 37  1  0  0  0  0
M  END
$$$$
ZINC04617982
  -OEChem-08230709403D

 55 60  0     0  0  0  0  0  0999 V2000
    4.2200   -8.2542   -3.2725 C   0  0  0  0  0  0  0  0  0  0  0  0
    3.5223   -8.8969   -2.2652 C   0  0  0  0  0  0  0  0  0  0  0  0
    2.5325   -8.2300   -1.5734 C   0  0  0  0  0  0  0  0  0  0  0  0
    2.2355   -6.9037   -1.8916 C   0  0  0  0  0  0  0  0  0  0  0  0
    2.9395   -6.2628   -2.9125 C   0  0  0  0  0  0  0  0  0  0  0  0
    3.9305   -6.9396   -3.5929 C   0  0  0  0  0  0  0  0  0  0  0  0
    1.1759   -6.1830   -1.1549 C   0  0  0  0  0  0  0  0  0  0  0  0
    0.5610   -6.7452   -0.2697 O   0  0  0  0  0  0  0  0  0  0  0  0
    0.8915   -4.9025   -1.4645 N   0  0  0  0  0  0  0  0  0  0  0  0
   -0.1830   -4.2553   -0.8455 C   0  0  0  0  0  0  0  0  0  0  0  0
   -1.3190   -4.9756   -0.4936 C   0  0  0  0  0  0  0  0  0  0  0  0
   -2.3836   -4.3411    0.1188 C   0  0  0  0  0  0  0  0  0  0  0  0
   -2.3267   -2.9882    0.3844 C   0  0  0  0  0  0  0  0  0  0  0  0
   -1.1903   -2.2552    0.0346 C   0  0  0  0  0  0  0  0  0  0  0  0
   -0.1174   -2.8952   -0.5881 C   0  0  0  0  0  0  0  0  0  0  0  0
   -1.1266   -0.8061    0.3173 C   0  0  0  0  0  0  0  0  0  0  0  0
   -2.1363   -0.1312    0.2627 O   0  0  0  0  0  0  0  0  0  0  0  0
    0.1628   -0.1783    0.6660 C   0  0  0  0  0  0  0  0  0  0  0  0
    1.2940   -0.9800    0.8849 C   0  0  0  0  0  0  0  0  0  0  0  0
    2.4889   -0.4132    1.2071 C   0  0  0  0  0  0  0  0  0  0  0  0
    2.5960    0.9772    1.3219 C   0  0  0  0  0  0  0  0  0  0  0  0
    1.4686    1.7921    1.1042 C   0  0  0  0  0  0  0  0  0  0  0  0
    0.2522    1.2065    0.7758 C   0  0  0  0  0  0  0  0  0  0  0  0
    1.8732    3.0919    1.2849 N   0  0  0  0  0  0  0  0  0  0  0  0
    1.2878    3.8979    1.1970 H   0  0  0  0  0  0  0  0  0  0  0  0
    3.2328    3.1108    1.6112 N   0  0  0  0  0  0  0  0  0  0  0  0
    3.7027    1.8842    1.6448 C   0  0  0  0  0  0  0  0  0  0  0  0
    5.0921    1.4904    1.9521 C   0  0  0  0  0  0  0  0  0  0  0  0
    6.1091    2.3576    2.2509 N   0  0  0  0  0  0  0  0  0  0  0  0
    6.0442    3.3543    2.2991 H   0  0  0  0  0  0  0  0  0  0  0  0
    7.2415    1.5978    2.4733 C   0  0  0  0  0  0  0  0  0  0  0  0
    8.5542    1.9004    2.8072 C   0  0  0  0  0  0  0  0  0  0  0  0
    9.4724    0.8830    2.9614 C   0  0  0  0  0  0  0  0  0  0  0  0
    9.0925   -0.4401    2.7859 C   0  0  0  0  0  0  0  0  0  0  0  0
    7.8052   -0.7578    2.4576 C   0  0  0  0  0  0  0  0  0  0  0  0
    6.8564    0.2571    2.2954 C   0  0  0  0  0  0  0  0  0  0  0  0
    4.9942   -8.7807   -3.8108 H   0  0  0  0  0  0  0  0  0  0  0  0
    3.7534   -9.9230   -2.0198 H   0  0  0  0  0  0  0  0  0  0  0  0
    1.9885   -8.7329   -0.7877 H   0  0  0  0  0  0  0  0  0  0  0  0
    2.7115   -5.2381   -3.1665 H   0  0  0  0  0  0  0  0  0  0  0  0
    4.4786   -6.4438   -4.3804 H   0  0  0  0  0  0  0  0  0  0  0  0
    1.4319   -4.4296   -2.1166 H   0  0  0  0  0  0  0  0  0  0  0  0
   -1.3697   -6.0346   -0.6992 H   0  0  0  0  0  0  0  0  0  0  0  0
   -3.2631   -4.9062    0.3900 H   0  0  0  0  0  0  0  0  0  0  0  0
   -3.1605   -2.4963    0.8630 H   0  0  0  0  0  0  0  0  0  0  0  0
    0.7622   -2.3330   -0.8650 H   0  0  0  0  0  0  0  0  0  0  0  0
    1.2158   -2.0536    0.7970 H   0  0  0  0  0  0  0  0  0  0  0  0
    3.3548   -1.0369    1.3737 H   0  0  0  0  0  0  0  0  0  0  0  0
   -0.6179    1.8224    0.6023 H   0  0  0  0  0  0  0  0  0  0  0  0
    8.8556    2.9284    2.9447 H   0  0  0  0  0  0  0  0  0  0  0  0
   10.4941    1.1176    3.2209 H   0  0  0  0  0  0  0  0  0  0  0  0
    9.8219   -1.2267    2.9106 H   0  0  0  0  0  0  0  0  0  0  0  0
    7.5203   -1.7909    2.3237 H   0  0  0  0  0  0  0  0  0  0  0  0
    5.5364    0.2562    1.9853 N   0  3  0  0  0  0  0  0  0  0  0  0
    4.9713   -0.5817    1.8043 H   0  0  0  0  0  0  0  0  0  0  0  0
  1  6  2  0  0  0  0
  1  2  1  0  0  0  0
  1 37  1  0  0  0  0
  2  3  2  0  0  0  0
  2 38  1  0  0  0  0
  3  4  1  0  0  0  0
  3 39  1  0  0  0  0
  4  5  2  0  0  0  0
  4  7  1  0  0  0  0
  5  6  1  0  0  0  0
  5 40  1  0  0  0  0
  6 41  1  0  0  0  0
  7  8  2  0  0  0  0
  7  9  1  0  0  0  0
  9 10  1  0  0  0  0
  9 42  1  0  0  0  0
 10 15  2  0  0  0  0
 10 11  1  0  0  0  0
 11 12  2  0  0  0  0
 11 43  1  0  0  0  0
 12 13  1  0  0  0  0
 12 44  1  0  0  0  0
 13 14  2  0  0  0  0
 13 45  1  0  0  0  0
 14 15  1  0  0  0  0
 14 16  1  0  0  0  0
 15 46  1  0  0  0  0
 16 17  2  0  0  0  0
 16 18  1  0  0  0  0
 18 23  2  0  0  0  0
 18 19  1  0  0  0  0
 19 20  2  0  0  0  0
 19 47  1  0  0  0  0
 20 21  1  0  0  0  0
 20 48  1  0  0  0  0
 21 27  1  0  0  0  0
 21 22  2  0  0  0  0
 22 23  1  0  0  0  0
 22 24  1  0  0  0  0
 23 49  1  0  0  0  0
 24 25  1  0  0  0  0
 24 26  1  0  0  0  0
 26 27  2  0  0  0  0
 27 28  1  0  0  0  0
 28 29  1  0  0  0  0
 28 54  2  0  0  0  0
 29 30  1  0  0  0  0
 29 31  1  0  0  0  0
 31 36  2  0  0  0  0
 31 32  1  0  0  0  0
 32 33  2  0  0  0  0
 32 50  1  0  0  0  0
 33 34  1  0  0  0  0
 33 51  1  0  0  0  0
 34 35  2  0  0  0  0
 34 52  1  0  0  0  0
 35 36  1  0  0  0  0
 35 53  1  0  0  0  0
 36 54  1  0  0  0  0
 54 55  1  0  0  0  0
M  CHG  1  54   1
M  END
$$$$
ZINC04617983
  -OEChem-08230709403D

 70 74  0     0  0  0  0  0  0999 V2000
   -1.2063    3.5397   -0.0236 C   0  0  0  0  0  0  0  0  0  0  0  0
   -0.0119    4.2360    0.0357 C   0  0  0  0  0  0  0  0  0  0  0  0
    1.1905    3.5548    0.1006 C   0  0  0  0  0  0  0  0  0  0  0  0
    1.2059    2.1752    0.1060 C   0  0  0  0  0  0  0  0  0  0  0  0
    0.0048    1.4668    0.0463 C   0  0  0  0  0  0  0  0  0  0  0  0
   -1.2048    2.1604   -0.0238 C   0  0  0  0  0  0  0  0  0  0  0  0
    0.0137   -0.0113    0.0512 C   0  0  0  0  0  0  0  0  0  0  0  0
    1.0688   -0.6127    0.1073 O   0  0  0  0  0  0  0  0  0  0  0  0
   -1.1479   -0.6924   -0.0065 N   0  0  0  0  0  0  0  0  0  0  0  0
   -1.1363   -2.0892   -0.1119 C   0  0  0  0  0  0  0  0  0  0  0  0
   -0.1239   -2.7237   -0.8201 C   0  0  0  0  0  0  0  0  0  0  0  0
   -0.1093   -4.1005   -0.9192 C   0  0  0  0  0  0  0  0  0  0  0  0
   -1.1136   -4.8506   -0.3206 C   0  0  0  0  0  0  0  0  0  0  0  0
   -2.1288   -4.2157    0.3827 C   0  0  0  0  0  0  0  0  0  0  0  0
   -2.1399   -2.8389    0.4869 C   0  0  0  0  0  0  0  0  0  0  0  0
   -3.2182   -5.0293    1.0326 C   0  0  0  0  0  0  0  0  0  0  0  0
   -4.1752   -4.1710    1.5845 F   0  0  0  0  0  0  0  0  0  0  0  0
   -3.8239   -5.8481    0.0735 F   0  0  0  0  0  0  0  0  0  0  0  0
   -2.6667   -5.8243    2.0431 F   0  0  0  0  0  0  0  0  0  0  0  0
   -1.1025   -6.2454   -0.4266 N   0  0  0  0  0  0  0  0  0  0  0  0
   -1.1406   -6.6669   -1.8340 C   0  0  0  0  0  0  0  0  0  0  0  0
   -1.2074   -8.1944   -1.9046 C   0  0  0  0  0  0  0  0  0  0  0  0
   -0.0022   -8.3439    0.1891 C   0  0  0  0  0  0  0  0  0  0  0  0
    0.0647   -6.8165    0.2598 C   0  0  0  0  0  0  0  0  0  0  0  0
    2.4863    4.3214    0.1650 C   0  0  0  0  0  0  0  0  0  0  0  0
    2.9993    4.5760   -1.2538 C   0  0  0  0  0  0  0  0  0  0  0  0
    4.2952    5.3426   -1.1894 C   0  0  0  0  0  0  0  0  0  0  0  0
    4.4323    6.6818   -1.2879 C   0  0  0  0  0  0  0  0  0  0  0  0
    5.7462    6.9774   -1.1800 N   0  0  0  0  0  0  0  0  0  0  0  0
    6.1455    7.8937   -1.2113 H   0  0  0  0  0  0  0  0  0  0  0  0
    6.4525    5.7789   -1.0167 N   0  0  0  0  0  0  0  0  0  0  0  0
    5.5822    4.7873   -1.0215 C   0  0  0  0  0  0  0  0  0  0  0  0
    5.8977    3.3544   -0.8771 C   0  0  0  0  0  0  0  0  0  0  0  0
    7.1712    2.9598   -0.7233 C   0  0  0  0  0  0  0  0  0  0  0  0
    7.4866    1.5271   -0.5790 C   0  0  0  0  0  0  0  0  0  0  0  0
    8.8122    1.1017   -0.4177 C   0  0  0  0  0  0  0  0  0  0  0  0
    9.0540   -0.2538   -0.2866 C   0  0  0  0  0  0  0  0  0  0  0  0
    7.9903   -1.1382   -0.3186 C   0  0  0  0  0  0  0  0  0  0  0  0
    6.7520   -0.7098   -0.4717 N   0  0  0  0  0  0  0  0  0  0  0  0
    6.4689    0.5703   -0.5949 C   0  0  0  0  0  0  0  0  0  0  0  0
   -2.1415    4.0775   -0.0741 H   0  0  0  0  0  0  0  0  0  0  0  0
   -0.0183    5.3159    0.0311 H   0  0  0  0  0  0  0  0  0  0  0  0
    2.1452    1.6446    0.1567 H   0  0  0  0  0  0  0  0  0  0  0  0
   -2.1374    1.6181   -0.0744 H   0  0  0  0  0  0  0  0  0  0  0  0
   -1.9919   -0.2154    0.0249 H   0  0  0  0  0  0  0  0  0  0  0  0
    0.6541   -2.1402   -1.2898 H   0  0  0  0  0  0  0  0  0  0  0  0
    0.6802   -4.5941   -1.4665 H   0  0  0  0  0  0  0  0  0  0  0  0
   -2.9295   -2.3451    1.0339 H   0  0  0  0  0  0  0  0  0  0  0  0
   -2.0202   -6.2417   -2.3173 H   0  0  0  0  0  0  0  0  0  0  0  0
   -0.2416   -6.3184   -2.3424 H   0  0  0  0  0  0  0  0  0  0  0  0
   -1.2065   -8.5105   -2.9477 H   0  0  0  0  0  0  0  0  0  0  0  0
   -2.1201   -8.5412   -1.4199 H   0  0  0  0  0  0  0  0  0  0  0  0
    0.8774   -8.7692    0.6725 H   0  0  0  0  0  0  0  0  0  0  0  0
   -0.9009   -8.6925    0.6979 H   0  0  0  0  0  0  0  0  0  0  0  0
    0.9773   -6.4697   -0.2249 H   0  0  0  0  0  0  0  0  0  0  0  0
    0.0640   -6.5000    1.3028 H   0  0  0  0  0  0  0  0  0  0  0  0
    2.3203    5.2742    0.6677 H   0  0  0  0  0  0  0  0  0  0  0  0
    3.2242    3.7417    0.7196 H   0  0  0  0  0  0  0  0  0  0  0  0
    3.1654    3.6232   -1.7565 H   0  0  0  0  0  0  0  0  0  0  0  0
    2.2614    5.1557   -1.8084 H   0  0  0  0  0  0  0  0  0  0  0  0
    3.6315    7.3929   -1.4269 H   0  0  0  0  0  0  0  0  0  0  0  0
    5.1039    2.6222   -0.8952 H   0  0  0  0  0  0  0  0  0  0  0  0
    7.9650    3.6920   -0.7052 H   0  0  0  0  0  0  0  0  0  0  0  0
    9.6239    1.8138   -0.3966 H   0  0  0  0  0  0  0  0  0  0  0  0
   10.0628   -0.6183   -0.1603 H   0  0  0  0  0  0  0  0  0  0  0  0
    8.1768   -2.1970   -0.2161 H   0  0  0  0  0  0  0  0  0  0  0  0
    5.4419    0.8827   -0.7139 H   0  0  0  0  0  0  0  0  0  0  0  0
   -0.0336   -8.7714   -1.2225 N   0  3  0  0  0  0  0  0  0  0  0  0
    0.8220   -8.4528   -1.6922 H   0  0  0  0  0  0  0  0  0  0  0  0
   -0.0864   -9.7959   -1.2653 H   0  0  0  0  0  0  0  0  0  0  0  0
  1  6  2  0  0  0  0
  1  2  1  0  0  0  0
  1 41  1  0  0  0  0
  2  3  2  0  0  0  0
  2 42  1  0  0  0  0
  3  4  1  0  0  0  0
  3 25  1  0  0  0  0
  4  5  2  0  0  0  0
  4 43  1  0  0  0  0
  5  6  1  0  0  0  0
  5  7  1  0  0  0  0
  6 44  1  0  0  0  0
  7  8  2  0  0  0  0
  7  9  1  0  0  0  0
  9 10  1  0  0  0  0
  9 45  1  0  0  0  0
 10 15  2  0  0  0  0
 10 11  1  0  0  0  0
 11 12  2  0  0  0  0
 11 46  1  0  0  0  0
 12 13  1  0  0  0  0
 12 47  1  0  0  0  0
 13 14  2  0  0  0  0
 13 20  1  0  0  0  0
 14 15  1  0  0  0  0
 14 16  1  0  0  0  0
 15 48  1  0  0  0  0
 16 17  1  0  0  0  0
 16 18  1  0  0  0  0
 16 19  1  0  0  0  0
 20 24  1  0  0  0  0
 20 21  1  0  0  0  0
 21 22  1  0  0  0  0
 21 49  1  0  0  0  0
 21 50  1  0  0  0  0
 22 51  1  0  0  0  0
 22 52  1  0  0  0  0
 22 68  1  0  0  0  0
 23 24  1  0  0  0  0
 23 53  1  0  0  0  0
 23 54  1  0  0  0  0
 23 68  1  0  0  0  0
 24 55  1  0  0  0  0
 24 56  1  0  0  0  0
 25 26  1  0  0  0  0
 25 57  1  0  0  0  0
 25 58  1  0  0  0  0
 26 27  1  0  0  0  0
 26 59  1  0  0  0  0
 26 60  1  0  0  0  0
 27 32  1  0  0  0  0
 27 28  2  0  0  0  0
 28 29  1  0  0  0  0
 28 61  1  0  0  0  0
 29 30  1  0  0  0  0
 29 31  1  0  0  0  0
 31 32  2  0  0  0  0
 32 33  1  0  0  0  0
 33 34  2  0  0  0  0
 33 62  1  0  0  0  0
 34 35  1  0  0  0  0
 34 63  1  0  0  0  0
 35 40  2  0  0  0  0
 35 36  1  0  0  0  0
 36 37  2  0  0  0  0
 36 64  1  0  0  0  0
 37 38  1  0  0  0  0
 37 65  1  0  0  0  0
 38 39  2  0  0  0  0
 38 66  1  0  0  0  0
 39 40  1  0  0  0  0
 40 67  1  0  0  0  0
 68 69  1  0  0  0  0
 68 70  1  0  0  0  0
M  CHG  1  68   1
M  END
$$$$
ZINC04617984
  -OEChem-08230709403D

 48 51  0     0  0  0  0  0  0999 V2000
    3.6758    0.3573   -5.4712 C   0  0  0  0  0  0  0  0  0  0  0  0
    3.6962    1.2170   -4.2336 C   0  0  0  0  0  0  0  0  0  0  0  0
    2.8936    2.1176   -4.1075 O   0  0  0  0  0  0  0  0  0  0  0  0
    4.6063    0.9852   -3.2670 N   0  0  0  0  0  0  0  0  0  0  0  0
    4.6890    1.8423   -2.1637 C   0  0  0  0  0  0  0  0  0  0  0  0
    5.9251    2.1225   -1.5925 C   0  0  0  0  0  0  0  0  0  0  0  0
    6.0127    2.9687   -0.5028 C   0  0  0  0  0  0  0  0  0  0  0  0
    4.8744    3.5457    0.0220 C   0  0  0  0  0  0  0  0  0  0  0  0
    3.6270    3.2662   -0.5408 C   0  0  0  0  0  0  0  0  0  0  0  0
    3.5390    2.4116   -1.6411 C   0  0  0  0  0  0  0  0  0  0  0  0
    2.4054    3.8776    0.0228 C   0  0  0  0  0  0  0  0  0  0  0  0
    2.4750    4.9324    0.6233 O   0  0  0  0  0  0  0  0  0  0  0  0
    1.1007    3.2077   -0.1434 C   0  0  0  0  0  0  0  0  0  0  0  0
    1.0520    1.8408   -0.4580 C   0  0  0  0  0  0  0  0  0  0  0  0
   -0.1451    1.2113   -0.6139 C   0  0  0  0  0  0  0  0  0  0  0  0
   -1.3372    1.9280   -0.4658 C   0  0  0  0  0  0  0  0  0  0  0  0
   -1.3017    3.2985   -0.1455 C   0  0  0  0  0  0  0  0  0  0  0  0
   -0.0763    3.9344    0.0121 C   0  0  0  0  0  0  0  0  0  0  0  0
   -2.6045    3.7243   -0.0602 N   0  0  0  0  0  0  0  0  0  0  0  0
   -2.8956    4.6574    0.1511 H   0  0  0  0  0  0  0  0  0  0  0  0
   -3.4600    2.6481   -0.3153 N   0  0  0  0  0  0  0  0  0  0  0  0
   -2.7563    1.5637   -0.5574 C   0  0  0  0  0  0  0  0  0  0  0  0
   -3.2935    0.2296   -0.8691 C   0  0  0  0  0  0  0  0  0  0  0  0
   -4.6223    0.0368   -0.9259 C   0  0  0  0  0  0  0  0  0  0  0  0
   -5.1602   -1.2990   -1.2379 C   0  0  0  0  0  0  0  0  0  0  0  0
   -4.2916   -2.3665   -1.4810 C   0  0  0  0  0  0  0  0  0  0  0  0
   -4.8026   -3.6154   -1.7664 C   0  0  0  0  0  0  0  0  0  0  0  0
   -6.1714   -3.8100   -1.8244 C   0  0  0  0  0  0  0  0  0  0  0  0
   -7.0376   -2.7564   -1.5905 C   0  0  0  0  0  0  0  0  0  0  0  0
   -6.5415   -1.5033   -1.2979 C   0  0  0  0  0  0  0  0  0  0  0  0
    3.5019   -0.6811   -5.1894 H   0  0  0  0  0  0  0  0  0  0  0  0
    2.8776    0.6926   -6.1334 H   0  0  0  0  0  0  0  0  0  0  0  0
    4.6331    0.4387   -5.9859 H   0  0  0  0  0  0  0  0  0  0  0  0
    5.2040    0.2244   -3.3360 H   0  0  0  0  0  0  0  0  0  0  0  0
    6.8201    1.6773   -2.0012 H   0  0  0  0  0  0  0  0  0  0  0  0
    6.9759    3.1825   -0.0636 H   0  0  0  0  0  0  0  0  0  0  0  0
    4.9475    4.2098    0.8706 H   0  0  0  0  0  0  0  0  0  0  0  0
    2.5779    2.1954   -2.0837 H   0  0  0  0  0  0  0  0  0  0  0  0
    1.9701    1.2845   -0.5769 H   0  0  0  0  0  0  0  0  0  0  0  0
   -0.1743    0.1593   -0.8563 H   0  0  0  0  0  0  0  0  0  0  0  0
   -0.0373    4.9864    0.2535 H   0  0  0  0  0  0  0  0  0  0  0  0
   -2.6200   -0.5945   -1.0521 H   0  0  0  0  0  0  0  0  0  0  0  0
   -5.2959    0.8610   -0.7428 H   0  0  0  0  0  0  0  0  0  0  0  0
   -3.2231   -2.2150   -1.4408 H   0  0  0  0  0  0  0  0  0  0  0  0
   -4.1327   -4.4424   -1.9497 H   0  0  0  0  0  0  0  0  0  0  0  0
   -6.5657   -4.7891   -2.0531 H   0  0  0  0  0  0  0  0  0  0  0  0
   -8.1048   -2.9158   -1.6375 H   0  0  0  0  0  0  0  0  0  0  0  0
   -7.2187   -0.6820   -1.1152 H   0  0  0  0  0  0  0  0  0  0  0  0
  1  2  1  0  0  0  0
  1 31  1  0  0  0  0
  1 32  1  0  0  0  0
  1 33  1  0  0  0  0
  2  3  2  0  0  0  0
  2  4  1  0  0  0  0
  4  5  1  0  0  0  0
  4 34  1  0  0  0  0
  5 10  2  0  0  0  0
  5  6  1  0  0  0  0
  6  7  2  0  0  0  0
  6 35  1  0  0  0  0
  7  8  1  0  0  0  0
  7 36  1  0  0  0  0
  8  9  2  0  0  0  0
  8 37  1  0  0  0  0
  9 10  1  0  0  0  0
  9 11  1  0  0  0  0
 10 38  1  0  0  0  0
 11 12  2  0  0  0  0
 11 13  1  0  0  0  0
 13 18  2  0  0  0  0
 13 14  1  0  0  0  0
 14 15  2  0  0  0  0
 14 39  1  0  0  0  0
 15 16  1  0  0  0  0
 15 40  1  0  0  0  0
 16 22  1  0  0  0  0
 16 17  2  0  0  0  0
 17 18  1  0  0  0  0
 17 19  1  0  0  0  0
 18 41  1  0  0  0  0
 19 20  1  0  0  0  0
 19 21  1  0  0  0  0
 21 22  2  0  0  0  0
 22 23  1  0  0  0  0
 23 24  2  0  0  0  0
 23 42  1  0  0  0  0
 24 25  1  0  0  0  0
 24 43  1  0  0  0  0
 25 30  2  0  0  0  0
 25 26  1  0  0  0  0
 26 27  2  0  0  0  0
 26 44  1  0  0  0  0
 27 28  1  0  0  0  0
 27 45  1  0  0  0  0
 28 29  2  0  0  0  0
 28 46  1  0  0  0  0
 29 30  1  0  0  0  0
 29 47  1  0  0  0  0
 30 48  1  0  0  0  0
M  END
$$$$
ZINC04617985
  -OEChem-08230709403D

 38 42  0     0  0  0  0  0  0999 V2000
   -2.0335   12.6718    0.0860 C   0  0  0  0  0  0  0  0  0  0  0  0
   -3.0501   11.7271    0.0908 C   0  0  0  0  0  0  0  0  0  0  0  0
   -2.7609   10.3922    0.0814 C   0  0  0  0  0  0  0  0  0  0  0  0
   -1.4282    9.9677    0.0668 C   0  0  0  0  0  0  0  0  0  0  0  0
   -0.3982   10.9251    0.0620 C   0  0  0  0  0  0  0  0  0  0  0  0
   -0.7122   12.2769    0.0717 C   0  0  0  0  0  0  0  0  0  0  0  0
    0.7877   10.2163    0.0474 N   0  0  0  0  0  0  0  0  0  0  0  0
    1.7100   10.6027    0.0408 H   0  0  0  0  0  0  0  0  0  0  0  0
    0.4639    8.8855    0.0437 C   0  0  0  0  0  0  0  0  0  0  0  0
   -0.8404    8.7467    0.0503 N   0  0  0  0  0  0  0  0  0  0  0  0
    1.4363    7.7747    0.0283 C   0  0  0  0  0  0  0  0  0  0  0  0
    1.1168    6.3420    0.0240 C   0  0  0  0  0  0  0  0  0  0  0  0
   -0.0797    5.6192    0.0316 C   0  0  0  0  0  0  0  0  0  0  0  0
   -0.0521    4.2567    0.0187 C   0  0  0  0  0  0  0  0  0  0  0  0
    1.1687    3.5715    0.0096 C   0  0  0  0  0  0  0  0  0  0  0  0
    2.3662    4.2724    0.0019 C   0  0  0  0  0  0  0  0  0  0  0  0
    2.3493    5.6633    0.0091 C   0  0  0  0  0  0  0  0  0  0  0  0
    3.3334    6.6202    0.0047 N   0  0  0  0  0  0  0  0  0  0  0  0
    4.3168    6.4389   -0.0054 H   0  0  0  0  0  0  0  0  0  0  0  0
    2.7446    7.8884    0.0166 N   0  0  0  0  0  0  0  0  0  0  0  0
    1.1821    2.0881    0.0020 C   0  0  0  0  0  0  0  0  0  0  0  0
    2.3941    1.3998   -0.0137 C   0  0  0  0  0  0  0  0  0  0  0  0
    2.4020    0.0198   -0.0212 C   0  0  0  0  0  0  0  0  0  0  0  0
    1.2101   -0.6818   -0.0136 C   0  0  0  0  0  0  0  0  0  0  0  0
    0.0021   -0.0041    0.0020 C   0  0  0  0  0  0  0  0  0  0  0  0
   -0.0167    1.3784    0.0096 C   0  0  0  0  0  0  0  0  0  0  0  0
   -1.1590   -0.6947    0.0094 F   0  0  0  0  0  0  0  0  0  0  0  0
   -2.2788   13.7235    0.0936 H   0  0  0  0  0  0  0  0  0  0  0  0
   -4.0804   12.0508    0.1016 H   0  0  0  0  0  0  0  0  0  0  0  0
   -3.5600    9.6656    0.0848 H   0  0  0  0  0  0  0  0  0  0  0  0
    0.0748   13.0165    0.0684 H   0  0  0  0  0  0  0  0  0  0  0  0
   -1.0256    6.1403    0.0431 H   0  0  0  0  0  0  0  0  0  0  0  0
   -0.9785    3.7017    0.0198 H   0  0  0  0  0  0  0  0  0  0  0  0
    3.3063    3.7409   -0.0099 H   0  0  0  0  0  0  0  0  0  0  0  0
    3.3258    1.9458   -0.0197 H   0  0  0  0  0  0  0  0  0  0  0  0
    3.3411   -0.5135   -0.0334 H   0  0  0  0  0  0  0  0  0  0  0  0
    1.2213   -1.7617   -0.0202 H   0  0  0  0  0  0  0  0  0  0  0  0
   -0.9585    1.9069    0.0170 H   0  0  0  0  0  0  0  0  0  0  0  0
  1  6  2  0  0  0  0
  1  2  1  0  0  0  0
  1 28  1  0  0  0  0
  2  3  2  0  0  0  0
  2 29  1  0  0  0  0
  3  4  1  0  0  0  0
  3 30  1  0  0  0  0
  4 10  1  0  0  0  0
  4  5  2  0  0  0  0
  5  6  1  0  0  0  0
  5  7  1  0  0  0  0
  6 31  1  0  0  0  0
  7  8  1  0  0  0  0
  7  9  1  0  0  0  0
  9 10  2  0  0  0  0
  9 11  1  0  0  0  0
 11 20  2  0  0  0  0
 11 12  1  0  0  0  0
 12 17  2  0  0  0  0
 12 13  1  0  0  0  0
 13 14  2  0  0  0  0
 13 32  1  0  0  0  0
 14 15  1  0  0  0  0
 14 33  1  0  0  0  0
 15 16  2  0  0  0  0
 15 21  1  0  0  0  0
 16 17  1  0  0  0  0
 16 34  1  0  0  0  0
 17 18  1  0  0  0  0
 18 19  1  0  0  0  0
 18 20  1  0  0  0  0
 21 26  2  0  0  0  0
 21 22  1  0  0  0  0
 22 23  2  0  0  0  0
 22 35  1  0  0  0  0
 23 24  1  0  0  0  0
 23 36  1  0  0  0  0
 24 25  2  0  0  0  0
 24 37  1  0  0  0  0
 25 26  1  0  0  0  0
 25 27  1  0  0  0  0
 26 38  1  0  0  0  0
M  END
$$$$
ZINC04617985
  -OEChem-08230709403D

 38 42  0     0  0  0  0  0  0999 V2000
   -2.0335   12.6718    0.0860 C   0  0  0  0  0  0  0  0  0  0  0  0
   -3.0501   11.7271    0.0908 C   0  0  0  0  0  0  0  0  0  0  0  0
   -2.7609   10.3922    0.0814 C   0  0  0  0  0  0  0  0  0  0  0  0
   -1.4282    9.9677    0.0668 C   0  0  0  0  0  0  0  0  0  0  0  0
   -0.3982   10.9251    0.0620 C   0  0  0  0  0  0  0  0  0  0  0  0
   -0.7122   12.2769    0.0717 C   0  0  0  0  0  0  0  0  0  0  0  0
    0.7877   10.2163    0.0474 N   0  0  0  0  0  0  0  0  0  0  0  0
    1.7100   10.6027    0.0408 H   0  0  0  0  0  0  0  0  0  0  0  0
    0.4639    8.8855    0.0437 C   0  0  0  0  0  0  0  0  0  0  0  0
   -0.8404    8.7467    0.0503 N   0  0  0  0  0  0  0  0  0  0  0  0
    1.4363    7.7747    0.0283 C   0  0  0  0  0  0  0  0  0  0  0  0
    1.1168    6.3420    0.0240 C   0  0  0  0  0  0  0  0  0  0  0  0
   -0.0797    5.6192    0.0316 C   0  0  0  0  0  0  0  0  0  0  0  0
   -0.0521    4.2567    0.0187 C   0  0  0  0  0  0  0  0  0  0  0  0
    1.1687    3.5715    0.0096 C   0  0  0  0  0  0  0  0  0  0  0  0
    2.3662    4.2724    0.0019 C   0  0  0  0  0  0  0  0  0  0  0  0
    2.3493    5.6633    0.0091 C   0  0  0  0  0  0  0  0  0  0  0  0
    3.3334    6.6202    0.0047 N   0  0  0  0  0  0  0  0  0  0  0  0
    4.3168    6.4389   -0.0054 H   0  0  0  0  0  0  0  0  0  0  0  0
    2.7446    7.8884    0.0166 N   0  0  0  0  0  0  0  0  0  0  0  0
    1.1821    2.0881    0.0020 C   0  0  0  0  0  0  0  0  0  0  0  0
    2.3941    1.3998   -0.0137 C   0  0  0  0  0  0  0  0  0  0  0  0
    2.4020    0.0198   -0.0212 C   0  0  0  0  0  0  0  0  0  0  0  0
    1.2101   -0.6818   -0.0136 C   0  0  0  0  0  0  0  0  0  0  0  0
    0.0021   -0.0041    0.0020 C   0  0  0  0  0  0  0  0  0  0  0  0
   -0.0167    1.3784    0.0096 C   0  0  0  0  0  0  0  0  0  0  0  0
   -1.1590   -0.6947    0.0094 F   0  0  0  0  0  0  0  0  0  0  0  0
   -2.2788   13.7235    0.0936 H   0  0  0  0  0  0  0  0  0  0  0  0
   -4.0804   12.0508    0.1016 H   0  0  0  0  0  0  0  0  0  0  0  0
   -3.5600    9.6656    0.0848 H   0  0  0  0  0  0  0  0  0  0  0  0
    0.0748   13.0165    0.0684 H   0  0  0  0  0  0  0  0  0  0  0  0
   -1.0256    6.1403    0.0431 H   0  0  0  0  0  0  0  0  0  0  0  0
   -0.9785    3.7017    0.0198 H   0  0  0  0  0  0  0  0  0  0  0  0
    3.3063    3.7409   -0.0099 H   0  0  0  0  0  0  0  0  0  0  0  0
    3.3258    1.9458   -0.0197 H   0  0  0  0  0  0  0  0  0  0  0  0
    3.3411   -0.5135   -0.0334 H   0  0  0  0  0  0  0  0  0  0  0  0
    1.2213   -1.7617   -0.0202 H   0  0  0  0  0  0  0  0  0  0  0  0
   -0.9585    1.9069    0.0170 H   0  0  0  0  0  0  0  0  0  0  0  0
  1  6  2  0  0  0  0
  1  2  1  0  0  0  0
  1 28  1  0  0  0  0
  2  3  2  0  0  0  0
  2 29  1  0  0  0  0
  3  4  1  0  0  0  0
  3 30  1  0  0  0  0
  4 10  1  0  0  0  0
  4  5  2  0  0  0  0
  5  6  1  0  0  0  0
  5  7  1  0  0  0  0
  6 31  1  0  0  0  0
  7  8  1  0  0  0  0
  7  9  1  0  0  0  0
  9 10  2  0  0  0  0
  9 11  1  0  0  0  0
 11 20  2  0  0  0  0
 11 12  1  0  0  0  0
 12 17  2  0  0  0  0
 12 13  1  0  0  0  0
 13 14  2  0  0  0  0
 13 32  1  0  0  0  0
 14 15  1  0  0  0  0
 14 33  1  0  0  0  0
 15 16  2  0  0  0  0
 15 21  1  0  0  0  0
 16 17  1  0  0  0  0
 16 34  1  0  0  0  0
 17 18  1  0  0  0  0
 18 19  1  0  0  0  0
 18 20  1  0  0  0  0
 21 26  2  0  0  0  0
 21 22  1  0  0  0  0
 22 23  2  0  0  0  0
 22 35  1  0  0  0  0
 23 24  1  0  0  0  0
 23 36  1  0  0  0  0
 24 25  2  0  0  0  0
 24 37  1  0  0  0  0
 25 26  1  0  0  0  0
 25 27  1  0  0  0  0
 26 38  1  0  0  0  0
M  END
$$$$
ZINC04617985
  -OEChem-08230709403D

 39 43  0     0  0  0  0  0  0999 V2000
   -2.0335   12.6718    0.0860 C   0  0  0  0  0  0  0  0  0  0  0  0
   -3.0501   11.7271    0.0908 C   0  0  0  0  0  0  0  0  0  0  0  0
   -2.7609   10.3922    0.0814 C   0  0  0  0  0  0  0  0  0  0  0  0
   -1.4282    9.9677    0.0668 C   0  0  0  0  0  0  0  0  0  0  0  0
   -0.3982   10.9251    0.0620 C   0  0  0  0  0  0  0  0  0  0  0  0
   -0.7122   12.2769    0.0717 C   0  0  0  0  0  0  0  0  0  0  0  0
    0.7877   10.2163    0.0474 N   0  0  0  0  0  0  0  0  0  0  0  0
    1.7100   10.6027    0.0408 H   0  0  0  0  0  0  0  0  0  0  0  0
    0.4639    8.8855    0.0437 C   0  0  0  0  0  0  0  0  0  0  0  0
    1.4363    7.7747    0.0283 C   0  0  0  0  0  0  0  0  0  0  0  0
    1.1168    6.3420    0.0240 C   0  0  0  0  0  0  0  0  0  0  0  0
   -0.0797    5.6192    0.0316 C   0  0  0  0  0  0  0  0  0  0  0  0
   -0.0521    4.2567    0.0187 C   0  0  0  0  0  0  0  0  0  0  0  0
    1.1687    3.5715    0.0096 C   0  0  0  0  0  0  0  0  0  0  0  0
    2.3662    4.2724    0.0019 C   0  0  0  0  0  0  0  0  0  0  0  0
    2.3493    5.6633    0.0091 C   0  0  0  0  0  0  0  0  0  0  0  0
    3.3334    6.6202    0.0047 N   0  0  0  0  0  0  0  0  0  0  0  0
    4.3168    6.4389   -0.0054 H   0  0  0  0  0  0  0  0  0  0  0  0
    2.7446    7.8884    0.0166 N   0  0  0  0  0  0  0  0  0  0  0  0
    1.1821    2.0881    0.0020 C   0  0  0  0  0  0  0  0  0  0  0  0
    2.3941    1.3998   -0.0137 C   0  0  0  0  0  0  0  0  0  0  0  0
    2.4020    0.0198   -0.0212 C   0  0  0  0  0  0  0  0  0  0  0  0
    1.2101   -0.6818   -0.0136 C   0  0  0  0  0  0  0  0  0  0  0  0
    0.0021   -0.0041    0.0020 C   0  0  0  0  0  0  0  0  0  0  0  0
   -0.0167    1.3784    0.0096 C   0  0  0  0  0  0  0  0  0  0  0  0
   -1.1590   -0.6947    0.0094 F   0  0  0  0  0  0  0  0  0  0  0  0
   -2.2788   13.7235    0.0936 H   0  0  0  0  0  0  0  0  0  0  0  0
   -4.0804   12.0508    0.1016 H   0  0  0  0  0  0  0  0  0  0  0  0
   -3.5600    9.6656    0.0848 H   0  0  0  0  0  0  0  0  0  0  0  0
    0.0748   13.0165    0.0684 H   0  0  0  0  0  0  0  0  0  0  0  0
   -1.0256    6.1403    0.0431 H   0  0  0  0  0  0  0  0  0  0  0  0
   -0.9785    3.7017    0.0198 H   0  0  0  0  0  0  0  0  0  0  0  0
    3.3063    3.7409   -0.0099 H   0  0  0  0  0  0  0  0  0  0  0  0
    3.3258    1.9458   -0.0197 H   0  0  0  0  0  0  0  0  0  0  0  0
    3.3411   -0.5135   -0.0334 H   0  0  0  0  0  0  0  0  0  0  0  0
    1.2213   -1.7617   -0.0202 H   0  0  0  0  0  0  0  0  0  0  0  0
   -0.9585    1.9069    0.0170 H   0  0  0  0  0  0  0  0  0  0  0  0
   -0.8409    8.7458    0.0503 N   0  3  0  0  0  0  0  0  0  0  0  0
   -1.3404    7.8488    0.0439 H   0  0  0  0  0  0  0  0  0  0  0  0
  1  6  2  0  0  0  0
  1  2  1  0  0  0  0
  1 27  1  0  0  0  0
  2  3  2  0  0  0  0
  2 28  1  0  0  0  0
  3  4  1  0  0  0  0
  3 29  1  0  0  0  0
  4  5  2  0  0  0  0
  4 38  1  0  0  0  0
  5  6  1  0  0  0  0
  5  7  1  0  0  0  0
  6 30  1  0  0  0  0
  7  8  1  0  0  0  0
  7  9  1  0  0  0  0
  9 10  1  0  0  0  0
  9 38  2  0  0  0  0
 10 19  2  0  0  0  0
 10 11  1  0  0  0  0
 11 16  2  0  0  0  0
 11 12  1  0  0  0  0
 12 13  2  0  0  0  0
 12 31  1  0  0  0  0
 13 14  1  0  0  0  0
 13 32  1  0  0  0  0
 14 15  2  0  0  0  0
 14 20  1  0  0  0  0
 15 16  1  0  0  0  0
 15 33  1  0  0  0  0
 16 17  1  0  0  0  0
 17 18  1  0  0  0  0
 17 19  1  0  0  0  0
 20 25  2  0  0  0  0
 20 21  1  0  0  0  0
 21 22  2  0  0  0  0
 21 34  1  0  0  0  0
 22 23  1  0  0  0  0
 22 35  1  0  0  0  0
 23 24  2  0  0  0  0
 23 36  1  0  0  0  0
 24 25  1  0  0  0  0
 24 26  1  0  0  0  0
 25 37  1  0  0  0  0
 38 39  1  0  0  0  0
M  CHG  1  38   1
M  END
$$$$
ZINC04617986
  -OEChem-08230709403D

 39 43  0     0  0  0  0  0  0999 V2000
    2.8932   14.5101    0.0585 C   0  0  0  0  0  0  0  0  0  0  0  0
    3.9335   13.5918    0.0431 C   0  0  0  0  0  0  0  0  0  0  0  0
    3.6785   12.2499    0.0375 C   0  0  0  0  0  0  0  0  0  0  0  0
    2.3570   11.7914    0.0474 C   0  0  0  0  0  0  0  0  0  0  0  0
    1.3030   12.7221    0.0630 C   0  0  0  0  0  0  0  0  0  0  0  0
    1.5824   14.0815    0.0688 C   0  0  0  0  0  0  0  0  0  0  0  0
    0.1355   11.9831    0.0697 N   0  0  0  0  0  0  0  0  0  0  0  0
   -0.7964   12.3457    0.0807 H   0  0  0  0  0  0  0  0  0  0  0  0
    0.4932   10.6611    0.0585 C   0  0  0  0  0  0  0  0  0  0  0  0
    1.8006   10.5557    0.0510 N   0  0  0  0  0  0  0  0  0  0  0  0
   -0.4505    9.5258    0.0607 C   0  0  0  0  0  0  0  0  0  0  0  0
   -0.0947    8.1018    0.0488 C   0  0  0  0  0  0  0  0  0  0  0  0
    1.1199    7.4098    0.0342 C   0  0  0  0  0  0  0  0  0  0  0  0
    1.1271    6.0470    0.0306 C   0  0  0  0  0  0  0  0  0  0  0  0
   -0.0758    5.3308    0.0319 C   0  0  0  0  0  0  0  0  0  0  0  0
   -1.2908    6.0008    0.0471 C   0  0  0  0  0  0  0  0  0  0  0  0
   -1.3094    7.3917    0.0557 C   0  0  0  0  0  0  0  0  0  0  0  0
   -2.3176    8.3230    0.0706 N   0  0  0  0  0  0  0  0  0  0  0  0
   -3.2960    8.1165    0.0784 H   0  0  0  0  0  0  0  0  0  0  0  0
   -1.7613    9.6060    0.0732 N   0  0  0  0  0  0  0  0  0  0  0  0
   -0.0513    3.8476    0.0232 C   0  0  0  0  0  0  0  0  0  0  0  0
   -1.2457    3.1286    0.0308 C   0  0  0  0  0  0  0  0  0  0  0  0
   -1.2203    1.7487    0.0174 C   0  0  0  0  0  0  0  0  0  0  0  0
   -0.0126    1.0758    0.0080 C   0  0  0  0  0  0  0  0  0  0  0  0
    1.1810    1.7841    0.0004 C   0  0  0  0  0  0  0  0  0  0  0  0
    1.1649    3.1693    0.0080 C   0  0  0  0  0  0  0  0  0  0  0  0
    2.3659    1.1185   -0.0141 O   0  0  0  0  0  0  0  0  0  0  0  0
    3.1116   15.5678    0.0623 H   0  0  0  0  0  0  0  0  0  0  0  0
    4.9552   13.9418    0.0358 H   0  0  0  0  0  0  0  0  0  0  0  0
    4.4958   11.5440    0.0259 H   0  0  0  0  0  0  0  0  0  0  0  0
    0.7768   14.8007    0.0804 H   0  0  0  0  0  0  0  0  0  0  0  0
    2.0522    7.9550    0.0289 H   0  0  0  0  0  0  0  0  0  0  0  0
    2.0674    5.5158    0.0232 H   0  0  0  0  0  0  0  0  0  0  0  0
   -2.2170    5.4454    0.0526 H   0  0  0  0  0  0  0  0  0  0  0  0
   -2.1907    3.6513    0.0426 H   0  0  0  0  0  0  0  0  0  0  0  0
   -2.1464    1.1930    0.0184 H   0  0  0  0  0  0  0  0  0  0  0  0
    0.0021   -0.0041    0.0020 H   0  0  0  0  0  0  0  0  0  0  0  0
    2.0929    3.7217    0.0017 H   0  0  0  0  0  0  0  0  0  0  0  0
    2.7005    0.9304   -0.9016 H   0  0  0  0  0  0  0  0  0  0  0  0
  1  6  2  0  0  0  0
  1  2  1  0  0  0  0
  1 28  1  0  0  0  0
  2  3  2  0  0  0  0
  2 29  1  0  0  0  0
  3  4  1  0  0  0  0
  3 30  1  0  0  0  0
  4 10  1  0  0  0  0
  4  5  2  0  0  0  0
  5  6  1  0  0  0  0
  5  7  1  0  0  0  0
  6 31  1  0  0  0  0
  7  8  1  0  0  0  0
  7  9  1  0  0  0  0
  9 10  2  0  0  0  0
  9 11  1  0  0  0  0
 11 20  2  0  0  0  0
 11 12  1  0  0  0  0
 12 17  2  0  0  0  0
 12 13  1  0  0  0  0
 13 14  2  0  0  0  0
 13 32  1  0  0  0  0
 14 15  1  0  0  0  0
 14 33  1  0  0  0  0
 15 16  2  0  0  0  0
 15 21  1  0  0  0  0
 16 17  1  0  0  0  0
 16 34  1  0  0  0  0
 17 18  1  0  0  0  0
 18 19  1  0  0  0  0
 18 20  1  0  0  0  0
 21 26  2  0  0  0  0
 21 22  1  0  0  0  0
 22 23  2  0  0  0  0
 22 35  1  0  0  0  0
 23 24  1  0  0  0  0
 23 36  1  0  0  0  0
 24 25  2  0  0  0  0
 24 37  1  0  0  0  0
 25 26  1  0  0  0  0
 25 27  1  0  0  0  0
 26 38  1  0  0  0  0
 27 39  1  0  0  0  0
M  END
$$$$
ZINC04617986
  -OEChem-08230709403D

 39 43  0     0  0  0  0  0  0999 V2000
    2.8932   14.5101    0.0585 C   0  0  0  0  0  0  0  0  0  0  0  0
    3.9335   13.5918    0.0431 C   0  0  0  0  0  0  0  0  0  0  0  0
    3.6785   12.2499    0.0375 C   0  0  0  0  0  0  0  0  0  0  0  0
    2.3570   11.7914    0.0474 C   0  0  0  0  0  0  0  0  0  0  0  0
    1.3030   12.7221    0.0630 C   0  0  0  0  0  0  0  0  0  0  0  0
    1.5824   14.0815    0.0688 C   0  0  0  0  0  0  0  0  0  0  0  0
    0.1355   11.9831    0.0697 N   0  0  0  0  0  0  0  0  0  0  0  0
   -0.7964   12.3457    0.0807 H   0  0  0  0  0  0  0  0  0  0  0  0
    0.4932   10.6611    0.0585 C   0  0  0  0  0  0  0  0  0  0  0  0
    1.8006   10.5557    0.0510 N   0  0  0  0  0  0  0  0  0  0  0  0
   -0.4505    9.5258    0.0607 C   0  0  0  0  0  0  0  0  0  0  0  0
   -0.0947    8.1018    0.0488 C   0  0  0  0  0  0  0  0  0  0  0  0
    1.1199    7.4098    0.0342 C   0  0  0  0  0  0  0  0  0  0  0  0
    1.1271    6.0470    0.0306 C   0  0  0  0  0  0  0  0  0  0  0  0
   -0.0758    5.3308    0.0319 C   0  0  0  0  0  0  0  0  0  0  0  0
   -1.2908    6.0008    0.0471 C   0  0  0  0  0  0  0  0  0  0  0  0
   -1.3094    7.3917    0.0557 C   0  0  0  0  0  0  0  0  0  0  0  0
   -2.3176    8.3230    0.0706 N   0  0  0  0  0  0  0  0  0  0  0  0
   -3.2960    8.1165    0.0784 H   0  0  0  0  0  0  0  0  0  0  0  0
   -1.7613    9.6060    0.0732 N   0  0  0  0  0  0  0  0  0  0  0  0
   -0.0513    3.8476    0.0232 C   0  0  0  0  0  0  0  0  0  0  0  0
   -1.2457    3.1286    0.0308 C   0  0  0  0  0  0  0  0  0  0  0  0
   -1.2203    1.7487    0.0174 C   0  0  0  0  0  0  0  0  0  0  0  0
   -0.0126    1.0758    0.0080 C   0  0  0  0  0  0  0  0  0  0  0  0
    1.1810    1.7841    0.0004 C   0  0  0  0  0  0  0  0  0  0  0  0
    1.1649    3.1693    0.0080 C   0  0  0  0  0  0  0  0  0  0  0  0
    2.3659    1.1185   -0.0141 O   0  0  0  0  0  0  0  0  0  0  0  0
    3.1116   15.5678    0.0623 H   0  0  0  0  0  0  0  0  0  0  0  0
    4.9552   13.9418    0.0358 H   0  0  0  0  0  0  0  0  0  0  0  0
    4.4958   11.5440    0.0259 H   0  0  0  0  0  0  0  0  0  0  0  0
    0.7768   14.8007    0.0804 H   0  0  0  0  0  0  0  0  0  0  0  0
    2.0522    7.9550    0.0289 H   0  0  0  0  0  0  0  0  0  0  0  0
    2.0674    5.5158    0.0232 H   0  0  0  0  0  0  0  0  0  0  0  0
   -2.2170    5.4454    0.0526 H   0  0  0  0  0  0  0  0  0  0  0  0
   -2.1907    3.6513    0.0426 H   0  0  0  0  0  0  0  0  0  0  0  0
   -2.1464    1.1930    0.0184 H   0  0  0  0  0  0  0  0  0  0  0  0
    0.0021   -0.0041    0.0020 H   0  0  0  0  0  0  0  0  0  0  0  0
    2.0929    3.7217    0.0017 H   0  0  0  0  0  0  0  0  0  0  0  0
    2.7005    0.9304   -0.9016 H   0  0  0  0  0  0  0  0  0  0  0  0
  1  6  2  0  0  0  0
  1  2  1  0  0  0  0
  1 28  1  0  0  0  0
  2  3  2  0  0  0  0
  2 29  1  0  0  0  0
  3  4  1  0  0  0  0
  3 30  1  0  0  0  0
  4 10  1  0  0  0  0
  4  5  2  0  0  0  0
  5  6  1  0  0  0  0
  5  7  1  0  0  0  0
  6 31  1  0  0  0  0
  7  8  1  0  0  0  0
  7  9  1  0  0  0  0
  9 10  2  0  0  0  0
  9 11  1  0  0  0  0
 11 20  2  0  0  0  0
 11 12  1  0  0  0  0
 12 17  2  0  0  0  0
 12 13  1  0  0  0  0
 13 14  2  0  0  0  0
 13 32  1  0  0  0  0
 14 15  1  0  0  0  0
 14 33  1  0  0  0  0
 15 16  2  0  0  0  0
 15 21  1  0  0  0  0
 16 17  1  0  0  0  0
 16 34  1  0  0  0  0
 17 18  1  0  0  0  0
 18 19  1  0  0  0  0
 18 20  1  0  0  0  0
 21 26  2  0  0  0  0
 21 22  1  0  0  0  0
 22 23  2  0  0  0  0
 22 35  1  0  0  0  0
 23 24  1  0  0  0  0
 23 36  1  0  0  0  0
 24 25  2  0  0  0  0
 24 37  1  0  0  0  0
 25 26  1  0  0  0  0
 25 27  1  0  0  0  0
 26 38  1  0  0  0  0
 27 39  1  0  0  0  0
M  END
$$$$
ZINC04617986
  -OEChem-08230709403D

 40 44  0     0  0  0  0  0  0999 V2000
    2.8932   14.5101    0.0585 C   0  0  0  0  0  0  0  0  0  0  0  0
    3.9335   13.5918    0.0431 C   0  0  0  0  0  0  0  0  0  0  0  0
    3.6785   12.2499    0.0375 C   0  0  0  0  0  0  0  0  0  0  0  0
    2.3570   11.7914    0.0474 C   0  0  0  0  0  0  0  0  0  0  0  0
    1.3030   12.7221    0.0630 C   0  0  0  0  0  0  0  0  0  0  0  0
    1.5824   14.0815    0.0688 C   0  0  0  0  0  0  0  0  0  0  0  0
    0.1355   11.9831    0.0697 N   0  0  0  0  0  0  0  0  0  0  0  0
   -0.7964   12.3457    0.0807 H   0  0  0  0  0  0  0  0  0  0  0  0
    0.4932   10.6611    0.0585 C   0  0  0  0  0  0  0  0  0  0  0  0
   -0.4505    9.5258    0.0607 C   0  0  0  0  0  0  0  0  0  0  0  0
   -0.0947    8.1018    0.0488 C   0  0  0  0  0  0  0  0  0  0  0  0
    1.1199    7.4098    0.0342 C   0  0  0  0  0  0  0  0  0  0  0  0
    1.1271    6.0470    0.0306 C   0  0  0  0  0  0  0  0  0  0  0  0
   -0.0758    5.3308    0.0319 C   0  0  0  0  0  0  0  0  0  0  0  0
   -1.2908    6.0008    0.0471 C   0  0  0  0  0  0  0  0  0  0  0  0
   -1.3094    7.3917    0.0557 C   0  0  0  0  0  0  0  0  0  0  0  0
   -2.3176    8.3230    0.0706 N   0  0  0  0  0  0  0  0  0  0  0  0
   -3.2960    8.1165    0.0784 H   0  0  0  0  0  0  0  0  0  0  0  0
   -1.7613    9.6060    0.0732 N   0  0  0  0  0  0  0  0  0  0  0  0
   -0.0513    3.8476    0.0232 C   0  0  0  0  0  0  0  0  0  0  0  0
   -1.2457    3.1286    0.0308 C   0  0  0  0  0  0  0  0  0  0  0  0
   -1.2203    1.7487    0.0174 C   0  0  0  0  0  0  0  0  0  0  0  0
   -0.0126    1.0758    0.0080 C   0  0  0  0  0  0  0  0  0  0  0  0
    1.1810    1.7841    0.0004 C   0  0  0  0  0  0  0  0  0  0  0  0
    1.1649    3.1693    0.0080 C   0  0  0  0  0  0  0  0  0  0  0  0
    2.3659    1.1185   -0.0141 O   0  0  0  0  0  0  0  0  0  0  0  0
    3.1116   15.5678    0.0623 H   0  0  0  0  0  0  0  0  0  0  0  0
    4.9552   13.9418    0.0358 H   0  0  0  0  0  0  0  0  0  0  0  0
    4.4958   11.5440    0.0259 H   0  0  0  0  0  0  0  0  0  0  0  0
    0.7768   14.8007    0.0804 H   0  0  0  0  0  0  0  0  0  0  0  0
    2.0522    7.9550    0.0289 H   0  0  0  0  0  0  0  0  0  0  0  0
    2.0674    5.5158    0.0232 H   0  0  0  0  0  0  0  0  0  0  0  0
   -2.2170    5.4454    0.0526 H   0  0  0  0  0  0  0  0  0  0  0  0
   -2.1907    3.6513    0.0426 H   0  0  0  0  0  0  0  0  0  0  0  0
   -2.1464    1.1930    0.0184 H   0  0  0  0  0  0  0  0  0  0  0  0
    0.0021   -0.0041    0.0020 H   0  0  0  0  0  0  0  0  0  0  0  0
    2.0929    3.7217    0.0017 H   0  0  0  0  0  0  0  0  0  0  0  0
    2.7005    0.9304   -0.9016 H   0  0  0  0  0  0  0  0  0  0  0  0
    1.8011   10.5548    0.0510 N   0  3  0  0  0  0  0  0  0  0  0  0
    2.3234    9.6708    0.0483 H   0  0  0  0  0  0  0  0  0  0  0  0
  1  6  2  0  0  0  0
  1  2  1  0  0  0  0
  1 27  1  0  0  0  0
  2  3  2  0  0  0  0
  2 28  1  0  0  0  0
  3  4  1  0  0  0  0
  3 29  1  0  0  0  0
  4  5  2  0  0  0  0
  4 39  1  0  0  0  0
  5  6  1  0  0  0  0
  5  7  1  0  0  0  0
  6 30  1  0  0  0  0
  7  8  1  0  0  0  0
  7  9  1  0  0  0  0
  9 10  1  0  0  0  0
  9 39  2  0  0  0  0
 10 19  2  0  0  0  0
 10 11  1  0  0  0  0
 11 16  2  0  0  0  0
 11 12  1  0  0  0  0
 12 13  2  0  0  0  0
 12 31  1  0  0  0  0
 13 14  1  0  0  0  0
 13 32  1  0  0  0  0
 14 15  2  0  0  0  0
 14 20  1  0  0  0  0
 15 16  1  0  0  0  0
 15 33  1  0  0  0  0
 16 17  1  0  0  0  0
 17 18  1  0  0  0  0
 17 19  1  0  0  0  0
 20 25  2  0  0  0  0
 20 21  1  0  0  0  0
 21 22  2  0  0  0  0
 21 34  1  0  0  0  0
 22 23  1  0  0  0  0
 22 35  1  0  0  0  0
 23 24  2  0  0  0  0
 23 36  1  0  0  0  0
 24 25  1  0  0  0  0
 24 26  1  0  0  0  0
 25 37  1  0  0  0  0
 26 38  1  0  0  0  0
 39 40  1  0  0  0  0
M  CHG  1  39   1
M  END
$$$$
ZINC04617987
  -OEChem-08230709403D

 40 43  0     0  0  0  0  0  0999 V2000
    1.9968   13.1211    0.7926 C   0  0  0  0  0  0  0  0  0  0  0  0
    0.6448   13.4019    0.8828 C   0  0  0  0  0  0  0  0  0  0  0  0
   -0.2796   12.3793    0.8421 C   0  0  0  0  0  0  0  0  0  0  0  0
    0.1521   11.0567    0.7094 C   0  0  0  0  0  0  0  0  0  0  0  0
    1.5195   10.7804    0.6247 C   0  0  0  0  0  0  0  0  0  0  0  0
    2.4318   11.8140    0.6611 C   0  0  0  0  0  0  0  0  0  0  0  0
   -0.8292    9.9585    0.6651 C   0  0  0  0  0  0  0  0  0  0  0  0
   -0.4105    8.6878    0.5373 C   0  0  0  0  0  0  0  0  0  0  0  0
   -1.3904    7.5912    0.4931 C   0  0  0  0  0  0  0  0  0  0  0  0
   -1.0874    6.1599    0.3575 C   0  0  0  0  0  0  0  0  0  0  0  0
    0.0971    5.4299    0.2378 C   0  0  0  0  0  0  0  0  0  0  0  0
    0.0499    4.0708    0.1260 C   0  0  0  0  0  0  0  0  0  0  0  0
   -1.1733    3.4019    0.1307 C   0  0  0  0  0  0  0  0  0  0  0  0
   -2.3566    4.1057    0.2424 C   0  0  0  0  0  0  0  0  0  0  0  0
   -2.3254    5.4927    0.3626 C   0  0  0  0  0  0  0  0  0  0  0  0
   -3.2977    6.4523    0.4916 N   0  0  0  0  0  0  0  0  0  0  0  0
   -4.2817    6.2776    0.5256 H   0  0  0  0  0  0  0  0  0  0  0  0
   -2.6970    7.7127    0.5680 N   0  0  0  0  0  0  0  0  0  0  0  0
   -1.2019    2.0479    0.0189 O   0  0  0  0  0  0  0  0  0  0  0  0
   -0.0179    1.3815    0.0331 C   0  0  0  0  0  0  0  0  0  0  0  0
    0.4236    0.7246   -1.1067 C   0  0  0  0  0  0  0  0  0  0  0  0
    1.6246    0.0423   -1.0876 C   0  0  0  0  0  0  0  0  0  0  0  0
    2.3872    0.0147    0.0654 C   0  0  0  0  0  0  0  0  0  0  0  0
    1.9498    0.6688    1.2024 C   0  0  0  0  0  0  0  0  0  0  0  0
    0.7492    1.3518    1.1890 C   0  0  0  0  0  0  0  0  0  0  0  0
    2.7161   13.9261    0.8248 H   0  0  0  0  0  0  0  0  0  0  0  0
    0.3127   14.4245    0.9857 H   0  0  0  0  0  0  0  0  0  0  0  0
   -1.3345   12.6000    0.9123 H   0  0  0  0  0  0  0  0  0  0  0  0
    1.8606    9.7603    0.5268 H   0  0  0  0  0  0  0  0  0  0  0  0
    3.4886   11.6024    0.5912 H   0  0  0  0  0  0  0  0  0  0  0  0
   -1.8851   10.1747    0.7352 H   0  0  0  0  0  0  0  0  0  0  0  0
    0.6454    8.4716    0.4672 H   0  0  0  0  0  0  0  0  0  0  0  0
    1.0489    5.9403    0.2333 H   0  0  0  0  0  0  0  0  0  0  0  0
    0.9675    3.5087    0.0335 H   0  0  0  0  0  0  0  0  0  0  0  0
   -3.3013    3.5823    0.2411 H   0  0  0  0  0  0  0  0  0  0  0  0
   -0.1717    0.7458   -2.0075 H   0  0  0  0  0  0  0  0  0  0  0  0
    1.9683   -0.4698   -1.9742 H   0  0  0  0  0  0  0  0  0  0  0  0
    3.3260   -0.5191    0.0781 H   0  0  0  0  0  0  0  0  0  0  0  0
    2.5472    0.6454    2.1018 H   0  0  0  0  0  0  0  0  0  0  0  0
    0.4077    1.8620    2.0775 H   0  0  0  0  0  0  0  0  0  0  0  0
  1  6  2  0  0  0  0
  1  2  1  0  0  0  0
  1 26  1  0  0  0  0
  2  3  2  0  0  0  0
  2 27  1  0  0  0  0
  3  4  1  0  0  0  0
  3 28  1  0  0  0  0
  4  5  2  0  0  0  0
  4  7  1  0  0  0  0
  5  6  1  0  0  0  0
  5 29  1  0  0  0  0
  6 30  1  0  0  0  0
  7  8  2  0  0  0  0
  7 31  1  0  0  0  0
  8  9  1  0  0  0  0
  8 32  1  0  0  0  0
  9 18  2  0  0  0  0
  9 10  1  0  0  0  0
 10 15  2  0  0  0  0
 10 11  1  0  0  0  0
 11 12  2  0  0  0  0
 11 33  1  0  0  0  0
 12 13  1  0  0  0  0
 12 34  1  0  0  0  0
 13 14  2  0  0  0  0
 13 19  1  0  0  0  0
 14 15  1  0  0  0  0
 14 35  1  0  0  0  0
 15 16  1  0  0  0  0
 16 17  1  0  0  0  0
 16 18  1  0  0  0  0
 19 20  1  0  0  0  0
 20 25  2  0  0  0  0
 20 21  1  0  0  0  0
 21 22  2  0  0  0  0
 21 36  1  0  0  0  0
 22 23  1  0  0  0  0
 22 37  1  0  0  0  0
 23 24  2  0  0  0  0
 23 38  1  0  0  0  0
 24 25  1  0  0  0  0
 24 39  1  0  0  0  0
 25 40  1  0  0  0  0
M  END
$$$$
ZINC04617988
  -OEChem-08230709403D

 47 50  0     0  0  0  0  0  0999 V2000
    5.1410    0.5453   -0.0073 C   0  0  0  0  0  0  0  0  0  0  0  0
    4.1335   -0.4022    0.0237 C   0  0  0  0  0  0  0  0  0  0  0  0
    2.8116   -0.0074    0.0455 C   0  0  0  0  0  0  0  0  0  0  0  0
    2.4921    1.3505    0.0358 C   0  0  0  0  0  0  0  0  0  0  0  0
    3.5125    2.3010   -0.0017 C   0  0  0  0  0  0  0  0  0  0  0  0
    4.8307    1.8935   -0.0170 C   0  0  0  0  0  0  0  0  0  0  0  0
    1.0764    1.7808    0.0591 C   0  0  0  0  0  0  0  0  0  0  0  0
    0.6232    3.0690    0.0533 C   0  0  0  0  0  0  0  0  0  0  0  0
   -0.7766    3.0304    0.0825 C   0  0  0  0  0  0  0  0  0  0  0  0
   -1.1571    1.7741    0.0990 N   0  0  0  0  0  0  0  0  0  0  0  0
   -0.0145    0.9641    0.0912 N   0  0  0  0  0  0  0  0  0  0  0  0
   -0.0013   -0.0357    0.1065 H   0  0  0  0  0  0  0  0  0  0  0  0
   -1.6268    4.1440    0.0869 N   0  0  0  0  0  0  0  0  0  0  0  0
   -1.1084    5.3878    0.0616 C   0  0  0  0  0  0  0  0  0  0  0  0
    0.0975    5.5435    0.0349 O   0  0  0  0  0  0  0  0  0  0  0  0
   -2.0029    6.5594    0.0662 C   0  0  0  0  0  0  0  0  0  0  0  0
   -3.3867    6.3879   -0.0269 C   0  0  0  0  0  0  0  0  0  0  0  0
   -4.2172    7.4868   -0.0216 C   0  0  0  0  0  0  0  0  0  0  0  0
   -3.6881    8.7642    0.0762 C   0  0  0  0  0  0  0  0  0  0  0  0
   -2.3242    8.9503    0.1688 C   0  0  0  0  0  0  0  0  0  0  0  0
   -1.4706    7.8539    0.1699 C   0  0  0  0  0  0  0  0  0  0  0  0
   -0.0976    8.0383    0.2684 N   0  0  0  0  0  0  0  0  0  0  0  0
    0.4469    9.3791    0.4966 C   0  0  0  0  0  0  0  0  0  0  0  0
    1.9507    9.3059    0.5634 C   0  0  0  0  0  0  0  0  0  0  0  0
    2.5983    9.1017    1.7722 C   0  0  0  0  0  0  0  0  0  0  0  0
    3.9786    9.0360    1.7940 C   0  0  0  0  0  0  0  0  0  0  0  0
    4.6781    9.1745    0.6848 N   0  0  0  0  0  0  0  0  0  0  0  0
    4.0962    9.3746   -0.4816 C   0  0  0  0  0  0  0  0  0  0  0  0
    2.7197    9.4470   -0.5817 C   0  0  0  0  0  0  0  0  0  0  0  0
    6.1742    0.2313   -0.0235 H   0  0  0  0  0  0  0  0  0  0  0  0
    4.3822   -1.4532    0.0312 H   0  0  0  0  0  0  0  0  0  0  0  0
    2.0260   -0.7480    0.0704 H   0  0  0  0  0  0  0  0  0  0  0  0
    3.2713    3.3537   -0.0143 H   0  0  0  0  0  0  0  0  0  0  0  0
    5.6217    2.6284   -0.0416 H   0  0  0  0  0  0  0  0  0  0  0  0
    1.2349    3.9587    0.0297 H   0  0  0  0  0  0  0  0  0  0  0  0
   -2.5886    4.0198    0.1082 H   0  0  0  0  0  0  0  0  0  0  0  0
   -3.8044    5.3948   -0.1025 H   0  0  0  0  0  0  0  0  0  0  0  0
   -5.2864    7.3524   -0.0936 H   0  0  0  0  0  0  0  0  0  0  0  0
   -4.3478    9.6193    0.0802 H   0  0  0  0  0  0  0  0  0  0  0  0
   -1.9200    9.9489    0.2446 H   0  0  0  0  0  0  0  0  0  0  0  0
    0.5008    7.2794    0.1861 H   0  0  0  0  0  0  0  0  0  0  0  0
    0.1511   10.0355   -0.3218 H   0  0  0  0  0  0  0  0  0  0  0  0
    0.0602    9.7732    1.4364 H   0  0  0  0  0  0  0  0  0  0  0  0
    2.0311    8.9920    2.6847 H   0  0  0  0  0  0  0  0  0  0  0  0
    4.4905    8.8738    2.7311 H   0  0  0  0  0  0  0  0  0  0  0  0
    4.7023    9.4834   -1.3688 H   0  0  0  0  0  0  0  0  0  0  0  0
    2.2490    9.6117   -1.5396 H   0  0  0  0  0  0  0  0  0  0  0  0
  1  6  2  0  0  0  0
  1  2  1  0  0  0  0
  1 30  1  0  0  0  0
  2  3  2  0  0  0  0
  2 31  1  0  0  0  0
  3  4  1  0  0  0  0
  3 32  1  0  0  0  0
  4  5  2  0  0  0  0
  4  7  1  0  0  0  0
  5  6  1  0  0  0  0
  5 33  1  0  0  0  0
  6 34  1  0  0  0  0
  7 11  1  0  0  0  0
  7  8  2  0  0  0  0
  8  9  1  0  0  0  0
  8 35  1  0  0  0  0
  9 10  2  0  0  0  0
  9 13  1  0  0  0  0
 10 11  1  0  0  0  0
 11 12  1  0  0  0  0
 13 14  1  0  0  0  0
 13 36  1  0  0  0  0
 14 15  2  0  0  0  0
 14 16  1  0  0  0  0
 16 21  2  0  0  0  0
 16 17  1  0  0  0  0
 17 18  2  0  0  0  0
 17 37  1  0  0  0  0
 18 19  1  0  0  0  0
 18 38  1  0  0  0  0
 19 20  2  0  0  0  0
 19 39  1  0  0  0  0
 20 21  1  0  0  0  0
 20 40  1  0  0  0  0
 21 22  1  0  0  0  0
 22 23  1  0  0  0  0
 22 41  1  0  0  0  0
 23 24  1  0  0  0  0
 23 42  1  0  0  0  0
 23 43  1  0  0  0  0
 24 29  2  0  0  0  0
 24 25  1  0  0  0  0
 25 26  2  0  0  0  0
 25 44  1  0  0  0  0
 26 27  1  0  0  0  0
 26 45  1  0  0  0  0
 27 28  2  0  0  0  0
 28 29  1  0  0  0  0
 28 46  1  0  0  0  0
 29 47  1  0  0  0  0
M  END
$$$$
ZINC04617988
  -OEChem-08230709403D

 47 50  0     0  0  0  0  0  0999 V2000
    5.1410    0.5453   -0.0073 C   0  0  0  0  0  0  0  0  0  0  0  0
    4.1335   -0.4022    0.0237 C   0  0  0  0  0  0  0  0  0  0  0  0
    2.8116   -0.0074    0.0455 C   0  0  0  0  0  0  0  0  0  0  0  0
    2.4921    1.3505    0.0358 C   0  0  0  0  0  0  0  0  0  0  0  0
    3.5125    2.3010   -0.0017 C   0  0  0  0  0  0  0  0  0  0  0  0
    4.8307    1.8935   -0.0170 C   0  0  0  0  0  0  0  0  0  0  0  0
    1.0764    1.7808    0.0591 C   0  0  0  0  0  0  0  0  0  0  0  0
    0.6232    3.0690    0.0533 C   0  0  0  0  0  0  0  0  0  0  0  0
   -0.7766    3.0304    0.0825 C   0  0  0  0  0  0  0  0  0  0  0  0
   -1.1571    1.7741    0.0990 N   0  0  0  0  0  0  0  0  0  0  0  0
   -0.0145    0.9641    0.0912 N   0  0  0  0  0  0  0  0  0  0  0  0
   -0.0013   -0.0357    0.1065 H   0  0  0  0  0  0  0  0  0  0  0  0
   -1.6268    4.1440    0.0869 N   0  0  0  0  0  0  0  0  0  0  0  0
   -1.1084    5.3878    0.0616 C   0  0  0  0  0  0  0  0  0  0  0  0
    0.0975    5.5435    0.0349 O   0  0  0  0  0  0  0  0  0  0  0  0
   -2.0029    6.5594    0.0662 C   0  0  0  0  0  0  0  0  0  0  0  0
   -3.3867    6.3879   -0.0269 C   0  0  0  0  0  0  0  0  0  0  0  0
   -4.2172    7.4868   -0.0216 C   0  0  0  0  0  0  0  0  0  0  0  0
   -3.6881    8.7642    0.0762 C   0  0  0  0  0  0  0  0  0  0  0  0
   -2.3242    8.9503    0.1688 C   0  0  0  0  0  0  0  0  0  0  0  0
   -1.4706    7.8539    0.1699 C   0  0  0  0  0  0  0  0  0  0  0  0
   -0.0976    8.0383    0.2684 N   0  0  0  0  0  0  0  0  0  0  0  0
    0.4469    9.3791    0.4966 C   0  0  0  0  0  0  0  0  0  0  0  0
    1.9507    9.3059    0.5634 C   0  0  0  0  0  0  0  0  0  0  0  0
    2.5983    9.1017    1.7722 C   0  0  0  0  0  0  0  0  0  0  0  0
    3.9786    9.0360    1.7940 C   0  0  0  0  0  0  0  0  0  0  0  0
    4.6781    9.1745    0.6848 N   0  0  0  0  0  0  0  0  0  0  0  0
    4.0962    9.3746   -0.4816 C   0  0  0  0  0  0  0  0  0  0  0  0
    2.7197    9.4470   -0.5817 C   0  0  0  0  0  0  0  0  0  0  0  0
    6.1742    0.2313   -0.0235 H   0  0  0  0  0  0  0  0  0  0  0  0
    4.3822   -1.4532    0.0312 H   0  0  0  0  0  0  0  0  0  0  0  0
    2.0260   -0.7480    0.0704 H   0  0  0  0  0  0  0  0  0  0  0  0
    3.2713    3.3537   -0.0143 H   0  0  0  0  0  0  0  0  0  0  0  0
    5.6217    2.6284   -0.0416 H   0  0  0  0  0  0  0  0  0  0  0  0
    1.2349    3.9587    0.0297 H   0  0  0  0  0  0  0  0  0  0  0  0
   -2.5886    4.0198    0.1082 H   0  0  0  0  0  0  0  0  0  0  0  0
   -3.8044    5.3948   -0.1025 H   0  0  0  0  0  0  0  0  0  0  0  0
   -5.2864    7.3524   -0.0936 H   0  0  0  0  0  0  0  0  0  0  0  0
   -4.3478    9.6193    0.0802 H   0  0  0  0  0  0  0  0  0  0  0  0
   -1.9200    9.9489    0.2446 H   0  0  0  0  0  0  0  0  0  0  0  0
    0.5008    7.2794    0.1861 H   0  0  0  0  0  0  0  0  0  0  0  0
    0.1511   10.0355   -0.3218 H   0  0  0  0  0  0  0  0  0  0  0  0
    0.0602    9.7732    1.4364 H   0  0  0  0  0  0  0  0  0  0  0  0
    2.0311    8.9920    2.6847 H   0  0  0  0  0  0  0  0  0  0  0  0
    4.4905    8.8738    2.7311 H   0  0  0  0  0  0  0  0  0  0  0  0
    4.7023    9.4834   -1.3688 H   0  0  0  0  0  0  0  0  0  0  0  0
    2.2490    9.6117   -1.5396 H   0  0  0  0  0  0  0  0  0  0  0  0
  1  6  2  0  0  0  0
  1  2  1  0  0  0  0
  1 30  1  0  0  0  0
  2  3  2  0  0  0  0
  2 31  1  0  0  0  0
  3  4  1  0  0  0  0
  3 32  1  0  0  0  0
  4  5  2  0  0  0  0
  4  7  1  0  0  0  0
  5  6  1  0  0  0  0
  5 33  1  0  0  0  0
  6 34  1  0  0  0  0
  7 11  1  0  0  0  0
  7  8  2  0  0  0  0
  8  9  1  0  0  0  0
  8 35  1  0  0  0  0
  9 10  2  0  0  0  0
  9 13  1  0  0  0  0
 10 11  1  0  0  0  0
 11 12  1  0  0  0  0
 13 14  1  0  0  0  0
 13 36  1  0  0  0  0
 14 15  2  0  0  0  0
 14 16  1  0  0  0  0
 16 21  2  0  0  0  0
 16 17  1  0  0  0  0
 17 18  2  0  0  0  0
 17 37  1  0  0  0  0
 18 19  1  0  0  0  0
 18 38  1  0  0  0  0
 19 20  2  0  0  0  0
 19 39  1  0  0  0  0
 20 21  1  0  0  0  0
 20 40  1  0  0  0  0
 21 22  1  0  0  0  0
 22 23  1  0  0  0  0
 22 41  1  0  0  0  0
 23 24  1  0  0  0  0
 23 42  1  0  0  0  0
 23 43  1  0  0  0  0
 24 29  2  0  0  0  0
 24 25  1  0  0  0  0
 25 26  2  0  0  0  0
 25 44  1  0  0  0  0
 26 27  1  0  0  0  0
 26 45  1  0  0  0  0
 27 28  2  0  0  0  0
 28 29  1  0  0  0  0
 28 46  1  0  0  0  0
 29 47  1  0  0  0  0
M  END
$$$$
ZINC04617989
  -OEChem-08230709403D

 28 30  0     0  0  0  0  0  0999 V2000
    3.4526    3.1779   -0.6634 C   0  0  0  0  0  0  0  0  0  0  0  0
    3.4735    2.1145    0.2205 C   0  0  0  0  0  0  0  0  0  0  0  0
    2.3267    1.3789    0.4455 C   0  0  0  0  0  0  0  0  0  0  0  0
    1.1509    1.7082   -0.2174 C   0  0  0  0  0  0  0  0  0  0  0  0
    1.1348    2.7738   -1.1088 C   0  0  0  0  0  0  0  0  0  0  0  0
    2.2842    3.5081   -1.3253 C   0  0  0  0  0  0  0  0  0  0  0  0
   -0.0111    0.9658    0.0074 N   0  0  0  0  0  0  0  0  0  0  0  0
   -1.2508    1.5999    0.0202 C   0  0  0  0  0  0  0  0  0  0  0  0
   -1.4657    2.9411   -0.0321 C   0  0  0  0  0  0  0  0  0  0  0  0
   -2.8577    3.1553    0.0045 C   0  0  0  0  0  0  0  0  0  0  0  0
   -3.4512    1.9811    0.0762 N   0  0  0  0  0  0  0  0  0  0  0  0
   -2.4632    0.9884    0.0815 N   0  0  0  0  0  0  0  0  0  0  0  0
   -2.6220    0.0020    0.1231 H   0  0  0  0  0  0  0  0  0  0  0  0
   -3.5352    4.4698   -0.0318 C   0  0  0  0  0  0  0  0  0  0  0  0
   -4.8742    4.7511   -0.0000 C   0  0  0  0  0  0  0  0  0  0  0  0
   -5.2757    6.0688   -0.0456 C   0  0  0  0  0  0  0  0  0  0  0  0
   -4.3351    7.0444   -0.1204 C   0  0  0  0  0  0  0  0  0  0  0  0
   -2.8185    6.1026   -0.1207 S   0  0  0  0  0  0  0  0  0  0  0  0
    4.3510    3.7515   -0.8375 H   0  0  0  0  0  0  0  0  0  0  0  0
    4.3879    1.8589    0.7353 H   0  0  0  0  0  0  0  0  0  0  0  0
    2.3438    0.5484    1.1356 H   0  0  0  0  0  0  0  0  0  0  0  0
    0.2237    3.0297   -1.6291 H   0  0  0  0  0  0  0  0  0  0  0  0
    2.2715    4.3387   -2.0155 H   0  0  0  0  0  0  0  0  0  0  0  0
    0.0453    0.0081    0.1505 H   0  0  0  0  0  0  0  0  0  0  0  0
   -0.7053    3.7057   -0.0915 H   0  0  0  0  0  0  0  0  0  0  0  0
   -5.6024    3.9557    0.0593 H   0  0  0  0  0  0  0  0  0  0  0  0
   -6.3254    6.3218   -0.0225 H   0  0  0  0  0  0  0  0  0  0  0  0
   -4.4693    8.1152   -0.1633 H   0  0  0  0  0  0  0  0  0  0  0  0
  1  6  2  0  0  0  0
  1  2  1  0  0  0  0
  1 19  1  0  0  0  0
  2  3  2  0  0  0  0
  2 20  1  0  0  0  0
  3  4  1  0  0  0  0
  3 21  1  0  0  0  0
  4  5  2  0  0  0  0
  4  7  1  0  0  0  0
  5  6  1  0  0  0  0
  5 22  1  0  0  0  0
  6 23  1  0  0  0  0
  7  8  1  0  0  0  0
  7 24  1  0  0  0  0
  8 12  1  0  0  0  0
  8  9  2  0  0  0  0
  9 10  1  0  0  0  0
  9 25  1  0  0  0  0
 10 11  2  0  0  0  0
 10 14  1  0  0  0  0
 11 12  1  0  0  0  0
 12 13  1  0  0  0  0
 14 18  1  0  0  0  0
 14 15  2  0  0  0  0
 15 16  1  0  0  0  0
 15 26  1  0  0  0  0
 16 17  2  0  0  0  0
 16 27  1  0  0  0  0
 17 18  1  0  0  0  0
 17 28  1  0  0  0  0
M  END
$$$$
ZINC04617989
  -OEChem-08230709403D

 28 30  0     0  0  0  0  0  0999 V2000
    3.4526    3.1779   -0.6634 C   0  0  0  0  0  0  0  0  0  0  0  0
    3.4735    2.1145    0.2205 C   0  0  0  0  0  0  0  0  0  0  0  0
    2.3267    1.3789    0.4455 C   0  0  0  0  0  0  0  0  0  0  0  0
    1.1509    1.7082   -0.2174 C   0  0  0  0  0  0  0  0  0  0  0  0
    1.1348    2.7738   -1.1088 C   0  0  0  0  0  0  0  0  0  0  0  0
    2.2842    3.5081   -1.3253 C   0  0  0  0  0  0  0  0  0  0  0  0
   -0.0111    0.9658    0.0074 N   0  0  0  0  0  0  0  0  0  0  0  0
   -1.2508    1.5999    0.0202 C   0  0  0  0  0  0  0  0  0  0  0  0
   -1.4657    2.9411   -0.0321 C   0  0  0  0  0  0  0  0  0  0  0  0
   -2.8577    3.1553    0.0045 C   0  0  0  0  0  0  0  0  0  0  0  0
   -3.4512    1.9811    0.0762 N   0  0  0  0  0  0  0  0  0  0  0  0
   -2.4632    0.9884    0.0815 N   0  0  0  0  0  0  0  0  0  0  0  0
   -2.6220    0.0020    0.1231 H   0  0  0  0  0  0  0  0  0  0  0  0
   -3.5352    4.4698   -0.0318 C   0  0  0  0  0  0  0  0  0  0  0  0
   -4.8742    4.7511   -0.0000 C   0  0  0  0  0  0  0  0  0  0  0  0
   -5.2757    6.0688   -0.0456 C   0  0  0  0  0  0  0  0  0  0  0  0
   -4.3351    7.0444   -0.1204 C   0  0  0  0  0  0  0  0  0  0  0  0
   -2.8185    6.1026   -0.1207 S   0  0  0  0  0  0  0  0  0  0  0  0
    4.3510    3.7515   -0.8375 H   0  0  0  0  0  0  0  0  0  0  0  0
    4.3879    1.8589    0.7353 H   0  0  0  0  0  0  0  0  0  0  0  0
    2.3438    0.5484    1.1356 H   0  0  0  0  0  0  0  0  0  0  0  0
    0.2237    3.0297   -1.6291 H   0  0  0  0  0  0  0  0  0  0  0  0
    2.2715    4.3387   -2.0155 H   0  0  0  0  0  0  0  0  0  0  0  0
    0.0453    0.0081    0.1505 H   0  0  0  0  0  0  0  0  0  0  0  0
   -0.7053    3.7057   -0.0915 H   0  0  0  0  0  0  0  0  0  0  0  0
   -5.6024    3.9557    0.0593 H   0  0  0  0  0  0  0  0  0  0  0  0
   -6.3254    6.3218   -0.0225 H   0  0  0  0  0  0  0  0  0  0  0  0
   -4.4693    8.1152   -0.1633 H   0  0  0  0  0  0  0  0  0  0  0  0
  1  6  2  0  0  0  0
  1  2  1  0  0  0  0
  1 19  1  0  0  0  0
  2  3  2  0  0  0  0
  2 20  1  0  0  0  0
  3  4  1  0  0  0  0
  3 21  1  0  0  0  0
  4  5  2  0  0  0  0
  4  7  1  0  0  0  0
  5  6  1  0  0  0  0
  5 22  1  0  0  0  0
  6 23  1  0  0  0  0
  7  8  1  0  0  0  0
  7 24  1  0  0  0  0
  8 12  1  0  0  0  0
  8  9  2  0  0  0  0
  9 10  1  0  0  0  0
  9 25  1  0  0  0  0
 10 11  2  0  0  0  0
 10 14  1  0  0  0  0
 11 12  1  0  0  0  0
 12 13  1  0  0  0  0
 14 18  1  0  0  0  0
 14 15  2  0  0  0  0
 15 16  1  0  0  0  0
 15 26  1  0  0  0  0
 16 17  2  0  0  0  0
 16 27  1  0  0  0  0
 17 18  1  0  0  0  0
 17 28  1  0  0  0  0
M  END
$$$$
ZINC04617990
  -OEChem-08230709403D

 52 55  0     0  0  0  0  0  0999 V2000
   -4.6909    6.2795    1.9305 C   0  0  0  0  0  0  0  0  0  0  0  0
   -3.4599    6.3902    1.0682 C   0  0  0  0  0  0  0  0  0  0  0  0
   -2.3513    5.5093    1.0948 C   0  0  0  0  0  0  0  0  0  0  0  0
   -2.0477    4.3633    1.8422 C   0  0  0  0  0  0  0  0  0  0  0  0
   -0.8696    3.7103    1.6375 C   0  0  0  0  0  0  0  0  0  0  0  0
    0.0440    4.1725    0.6882 C   0  0  0  0  0  0  0  0  0  0  0  0
   -0.2349    5.3006   -0.0610 C   0  0  0  0  0  0  0  0  0  0  0  0
   -1.4340    5.9787    0.1352 C   0  0  0  0  0  0  0  0  0  0  0  0
   -1.9946    7.0964   -0.4288 N   0  0  0  0  0  0  0  0  0  0  0  0
   -1.5856    7.6598   -1.1467 H   0  0  0  0  0  0  0  0  0  0  0  0
   -3.2392    7.3110    0.1757 N   0  0  0  0  0  0  0  0  0  0  0  0
    1.2478    3.4895    0.4930 N   0  0  0  0  0  0  0  0  0  0  0  0
    2.3970    4.1909    0.1627 C   0  0  0  0  0  0  0  0  0  0  0  0
    3.5785    3.5115   -0.1433 C   0  0  0  0  0  0  0  0  0  0  0  0
    4.6975    4.2513   -0.4722 C   0  0  0  0  0  0  0  0  0  0  0  0
    4.6216    5.5741   -0.4773 N   0  0  0  0  0  0  0  0  0  0  0  0
    3.4889    6.1925   -0.1775 C   0  0  0  0  0  0  0  0  0  0  0  0
    2.3922    5.5197    0.1379 N   0  0  0  0  0  0  0  0  0  0  0  0
    3.4504    7.5768   -0.1946 N   0  0  0  0  0  0  0  0  0  0  0  0
    4.6251    8.3072   -0.4115 C   0  0  0  0  0  0  0  0  0  0  0  0
    5.8372    7.8302    0.0686 C   0  0  0  0  0  0  0  0  0  0  0  0
    7.0013    8.5503   -0.1499 C   0  0  0  0  0  0  0  0  0  0  0  0
    6.9531    9.7556   -0.8402 C   0  0  0  0  0  0  0  0  0  0  0  0
    5.7385   10.2350   -1.3158 C   0  0  0  0  0  0  0  0  0  0  0  0
    4.5762    9.5109   -1.1015 C   0  0  0  0  0  0  0  0  0  0  0  0
    5.6903   11.4145   -1.9910 O   0  0  0  0  0  0  0  0  0  0  0  0
    4.4082   11.8468   -2.4508 C   0  0  0  0  0  0  0  0  0  0  0  0
    8.0955   10.4662   -1.0507 O   0  0  0  0  0  0  0  0  0  0  0  0
    8.4556   11.4257   -0.0548 C   0  0  0  0  0  0  0  0  0  0  0  0
    8.1894    8.0804    0.3159 O   0  0  0  0  0  0  0  0  0  0  0  0
    8.1647    6.8351    1.0165 C   0  0  0  0  0  0  0  0  0  0  0  0
   -4.5392    6.8387    2.8537 H   0  0  0  0  0  0  0  0  0  0  0  0
   -5.5477    6.6881    1.3948 H   0  0  0  0  0  0  0  0  0  0  0  0
   -4.8760    5.2316    2.1667 H   0  0  0  0  0  0  0  0  0  0  0  0
   -2.7469    3.9982    2.5800 H   0  0  0  0  0  0  0  0  0  0  0  0
   -0.6396    2.8277    2.2160 H   0  0  0  0  0  0  0  0  0  0  0  0
    0.4725    5.6512   -0.7980 H   0  0  0  0  0  0  0  0  0  0  0  0
    1.2790    2.5247    0.5887 H   0  0  0  0  0  0  0  0  0  0  0  0
    3.6150    2.4323   -0.1274 H   0  0  0  0  0  0  0  0  0  0  0  0
    5.6256    3.7569   -0.7184 H   0  0  0  0  0  0  0  0  0  0  0  0
    2.6096    8.0403   -0.0563 H   0  0  0  0  0  0  0  0  0  0  0  0
    5.8739    6.8958    0.6089 H   0  0  0  0  0  0  0  0  0  0  0  0
    3.6322    9.8833   -1.4711 H   0  0  0  0  0  0  0  0  0  0  0  0
    4.5111   12.7987   -2.9719 H   0  0  0  0  0  0  0  0  0  0  0  0
    3.9965   11.1023   -3.1322 H   0  0  0  0  0  0  0  0  0  0  0  0
    3.7391   11.9693   -1.5992 H   0  0  0  0  0  0  0  0  0  0  0  0
    7.6623   12.1674    0.0387 H   0  0  0  0  0  0  0  0  0  0  0  0
    8.5962   10.9216    0.9013 H   0  0  0  0  0  0  0  0  0  0  0  0
    9.3828   11.9199   -0.3449 H   0  0  0  0  0  0  0  0  0  0  0  0
    7.7790    6.0559    0.3591 H   0  0  0  0  0  0  0  0  0  0  0  0
    9.1751    6.5762    1.3330 H   0  0  0  0  0  0  0  0  0  0  0  0
    7.5212    6.9235    1.8919 H   0  0  0  0  0  0  0  0  0  0  0  0
  1  2  1  0  0  0  0
  1 32  1  0  0  0  0
  1 33  1  0  0  0  0
  1 34  1  0  0  0  0
  2 11  2  0  0  0  0
  2  3  1  0  0  0  0
  3  8  2  0  0  0  0
  3  4  1  0  0  0  0
  4  5  2  0  0  0  0
  4 35  1  0  0  0  0
  5  6  1  0  0  0  0
  5 36  1  0  0  0  0
  6  7  2  0  0  0  0
  6 12  1  0  0  0  0
  7  8  1  0  0  0  0
  7 37  1  0  0  0  0
  8  9  1  0  0  0  0
  9 10  1  0  0  0  0
  9 11  1  0  0  0  0
 12 13  1  0  0  0  0
 12 38  1  0  0  0  0
 13 18  2  0  0  0  0
 13 14  1  0  0  0  0
 14 15  2  0  0  0  0
 14 39  1  0  0  0  0
 15 16  1  0  0  0  0
 15 40  1  0  0  0  0
 16 17  2  0  0  0  0
 17 18  1  0  0  0  0
 17 19  1  0  0  0  0
 19 20  1  0  0  0  0
 19 41  1  0  0  0  0
 20 25  2  0  0  0  0
 20 21  1  0  0  0  0
 21 22  2  0  0  0  0
 21 42  1  0  0  0  0
 22 23  1  0  0  0  0
 22 30  1  0  0  0  0
 23 24  2  0  0  0  0
 23 28  1  0  0  0  0
 24 25  1  0  0  0  0
 24 26  1  0  0  0  0
 25 43  1  0  0  0  0
 26 27  1  0  0  0  0
 27 44  1  0  0  0  0
 27 45  1  0  0  0  0
 27 46  1  0  0  0  0
 28 29  1  0  0  0  0
 29 47  1  0  0  0  0
 29 48  1  0  0  0  0
 29 49  1  0  0  0  0
 30 31  1  0  0  0  0
 31 50  1  0  0  0  0
 31 51  1  0  0  0  0
 31 52  1  0  0  0  0
M  END
$$$$
ZINC04632547
  -OEChem-08230709403D

 44 46  0     0  0  0  0  0  0999 V2000
    3.4775    6.8548    2.9746 C   0  0  0  0  0  0  0  0  0  0  0  0
    3.3347    5.4341    2.9170 O   0  0  0  0  0  0  0  0  0  0  0  0
    2.2060    4.9509    2.3361 C   0  0  0  0  0  0  0  0  0  0  0  0
    2.0055    3.5789    2.2480 C   0  0  0  0  0  0  0  0  0  0  0  0
    0.8624    3.0839    1.6598 C   0  0  0  0  0  0  0  0  0  0  0  0
   -0.0971    3.9649    1.1510 C   0  0  0  0  0  0  0  0  0  0  0  0
    0.1118    5.3449    1.2373 C   0  0  0  0  0  0  0  0  0  0  0  0
    1.2559    5.8302    1.8317 C   0  0  0  0  0  0  0  0  0  0  0  0
   -1.3204    3.4411    0.5209 C   0  0  0  0  0  0  0  0  0  0  0  0
   -1.2710    2.3110   -0.2072 C   0  0  0  0  0  0  0  0  0  0  0  0
    0.0273    1.7049   -0.5366 C   0  0  0  0  0  0  0  0  0  0  0  0
    1.0936    2.5070   -0.9504 C   0  0  0  0  0  0  0  0  0  0  0  0
    2.3067    1.9321   -1.2638 C   0  0  0  0  0  0  0  0  0  0  0  0
    2.4797    0.5596   -1.1714 C   0  0  0  0  0  0  0  0  0  0  0  0
    1.4410   -0.2511   -0.7647 C   0  0  0  0  0  0  0  0  0  0  0  0
    0.2039    0.3085   -0.4428 C   0  0  0  0  0  0  0  0  0  0  0  0
   -0.9102   -0.5533   -0.0074 C   0  0  0  0  0  0  0  0  0  0  0  0
   -2.0114   -0.0737    0.1833 O   0  0  0  0  0  0  0  0  0  0  0  0
   -0.7084   -1.8728    0.1793 N   0  0  0  0  0  0  0  0  0  0  0  0
   -1.7844   -2.7061    0.5024 C   0  0  0  0  0  0  0  0  0  0  0  0
   -2.8087   -2.2365    1.3143 C   0  0  0  0  0  0  0  0  0  0  0  0
   -3.8730   -3.0593    1.6267 C   0  0  0  0  0  0  0  0  0  0  0  0
   -3.9133   -4.3548    1.1415 C   0  0  0  0  0  0  0  0  0  0  0  0
   -2.8912   -4.8271    0.3370 C   0  0  0  0  0  0  0  0  0  0  0  0
   -1.8276   -4.0065    0.0165 C   0  0  0  0  0  0  0  0  0  0  0  0
   -5.2487   -5.3890    1.5424 Cl  0  0  0  0  0  0  0  0  0  0  0  0
    2.6504    7.2803    3.5429 H   0  0  0  0  0  0  0  0  0  0  0  0
    4.4199    7.1058    3.4614 H   0  0  0  0  0  0  0  0  0  0  0  0
    3.4711    7.2619    1.9635 H   0  0  0  0  0  0  0  0  0  0  0  0
    2.7469    2.8994    2.6416 H   0  0  0  0  0  0  0  0  0  0  0  0
    0.7076    2.0173    1.5915 H   0  0  0  0  0  0  0  0  0  0  0  0
   -0.6244    6.0292    0.8421 H   0  0  0  0  0  0  0  0  0  0  0  0
    1.4164    6.8959    1.9022 H   0  0  0  0  0  0  0  0  0  0  0  0
   -2.2573    3.9641    0.6433 H   0  0  0  0  0  0  0  0  0  0  0  0
   -2.1851    1.8490   -0.5497 H   0  0  0  0  0  0  0  0  0  0  0  0
    0.9675    3.5770   -1.0251 H   0  0  0  0  0  0  0  0  0  0  0  0
    3.1286    2.5555   -1.5836 H   0  0  0  0  0  0  0  0  0  0  0  0
    3.4354    0.1221   -1.4195 H   0  0  0  0  0  0  0  0  0  0  0  0
    1.5849   -1.3192   -0.6956 H   0  0  0  0  0  0  0  0  0  0  0  0
    0.1831   -2.2445    0.0896 H   0  0  0  0  0  0  0  0  0  0  0  0
   -2.7754   -1.2272    1.6971 H   0  0  0  0  0  0  0  0  0  0  0  0
   -4.6721   -2.6931    2.2540 H   0  0  0  0  0  0  0  0  0  0  0  0
   -2.9254   -5.8383   -0.0409 H   0  0  0  0  0  0  0  0  0  0  0  0
   -1.0304   -4.3755   -0.6117 H   0  0  0  0  0  0  0  0  0  0  0  0
  1  2  1  0  0  0  0
  1 27  1  0  0  0  0
  1 28  1  0  0  0  0
  1 29  1  0  0  0  0
  2  3  1  0  0  0  0
  3  8  2  0  0  0  0
  3  4  1  0  0  0  0
  4  5  2  0  0  0  0
  4 30  1  0  0  0  0
  5  6  1  0  0  0  0
  5 31  1  0  0  0  0
  6  7  2  0  0  0  0
  6  9  1  0  0  0  0
  7  8  1  0  0  0  0
  7 32  1  0  0  0  0
  8 33  1  0  0  0  0
  9 10  2  0  0  0  0
  9 34  1  0  0  0  0
 10 11  1  0  0  0  0
 10 35  1  0  0  0  0
 11 16  2  0  0  0  0
 11 12  1  0  0  0  0
 12 13  2  0  0  0  0
 12 36  1  0  0  0  0
 13 14  1  0  0  0  0
 13 37  1  0  0  0  0
 14 15  2  0  0  0  0
 14 38  1  0  0  0  0
 15 16  1  0  0  0  0
 15 39  1  0  0  0  0
 16 17  1  0  0  0  0
 17 18  2  0  0  0  0
 17 19  1  0  0  0  0
 19 20  1  0  0  0  0
 19 40  1  0  0  0  0
 20 25  2  0  0  0  0
 20 21  1  0  0  0  0
 21 22  2  0  0  0  0
 21 41  1  0  0  0  0
 22 23  1  0  0  0  0
 22 42  1  0  0  0  0
 23 24  2  0  0  0  0
 23 26  1  0  0  0  0
 24 25  1  0  0  0  0
 24 43  1  0  0  0  0
 25 44  1  0  0  0  0
M  END
$$$$
